.subckt powerp  Pdrive VDDIN VSSOUT
*.ipin Pdrive
*.iopin VSSOUT
*.iopin VDDIN

X0 VDDIN Pdrive VSSOUT VSSOUT sky130_fd_pr__pfet_01v8 ad=1.6848e+16p pd=3.536e+10u as=1.6848e+16p ps=3.536e+10u w=2.025e+07u l=150000u
X1 VDDIN Pdrive VSSOUT VSSOUT sky130_fd_pr__pfet_01v8 ad=0p pd=0u as=0p ps=0u w=2.025e+07u l=150000u
X2 VDDIN Pdrive VSSOUT VSSOUT sky130_fd_pr__pfet_01v8 ad=0p pd=0u as=0p ps=0u w=2.025e+07u l=150000u
X3 VDDIN Pdrive VSSOUT VSSOUT sky130_fd_pr__pfet_01v8 ad=0p pd=0u as=0p ps=0u w=2.025e+07u l=150000u
X4 VDDIN Pdrive VSSOUT VSSOUT sky130_fd_pr__pfet_01v8 ad=0p pd=0u as=0p ps=0u w=2.025e+07u l=150000u
X5 VDDIN Pdrive VSSOUT VSSOUT sky130_fd_pr__pfet_01v8 ad=0p pd=0u as=0p ps=0u w=2.025e+07u l=150000u
X6 VDDIN Pdrive VSSOUT VSSOUT sky130_fd_pr__pfet_01v8 ad=0p pd=0u as=0p ps=0u w=2.025e+07u l=150000u
X7 VDDIN Pdrive VSSOUT VSSOUT sky130_fd_pr__pfet_01v8 ad=0p pd=0u as=0p ps=0u w=2.025e+07u l=150000u
X8 VDDIN Pdrive VSSOUT VSSOUT sky130_fd_pr__pfet_01v8 ad=0p pd=0u as=0p ps=0u w=2.025e+07u l=150000u
X9 VDDIN Pdrive VSSOUT VSSOUT sky130_fd_pr__pfet_01v8 ad=0p pd=0u as=0p ps=0u w=2.025e+07u l=150000u
X10 VDDIN Pdrive VSSOUT VSSOUT sky130_fd_pr__pfet_01v8 ad=0p pd=0u as=0p ps=0u w=2.025e+07u l=150000u
X11 VDDIN Pdrive VSSOUT VSSOUT sky130_fd_pr__pfet_01v8 ad=0p pd=0u as=0p ps=0u w=2.025e+07u l=150000u
X12 VDDIN Pdrive VSSOUT VSSOUT sky130_fd_pr__pfet_01v8 ad=0p pd=0u as=0p ps=0u w=2.025e+07u l=150000u
X13 VDDIN Pdrive VSSOUT VSSOUT sky130_fd_pr__pfet_01v8 ad=0p pd=0u as=0p ps=0u w=2.025e+07u l=150000u
X14 VDDIN Pdrive VSSOUT VSSOUT sky130_fd_pr__pfet_01v8 ad=0p pd=0u as=0p ps=0u w=2.025e+07u l=150000u
X15 VDDIN Pdrive VSSOUT VSSOUT sky130_fd_pr__pfet_01v8 ad=0p pd=0u as=0p ps=0u w=2.025e+07u l=150000u
X16 VDDIN Pdrive VSSOUT VSSOUT sky130_fd_pr__pfet_01v8 ad=0p pd=0u as=0p ps=0u w=2.025e+07u l=150000u
X17 VDDIN Pdrive VSSOUT VSSOUT sky130_fd_pr__pfet_01v8 ad=0p pd=0u as=0p ps=0u w=2.025e+07u l=150000u
X18 VDDIN Pdrive VSSOUT VSSOUT sky130_fd_pr__pfet_01v8 ad=0p pd=0u as=0p ps=0u w=2.025e+07u l=150000u
X19 VDDIN Pdrive VSSOUT VSSOUT sky130_fd_pr__pfet_01v8 ad=0p pd=0u as=0p ps=0u w=2.025e+07u l=150000u
X20 VDDIN Pdrive VSSOUT VSSOUT sky130_fd_pr__pfet_01v8 ad=0p pd=0u as=0p ps=0u w=2.025e+07u l=150000u
X21 VDDIN Pdrive VSSOUT VSSOUT sky130_fd_pr__pfet_01v8 ad=0p pd=0u as=0p ps=0u w=2.025e+07u l=150000u
X22 VDDIN Pdrive VSSOUT VSSOUT sky130_fd_pr__pfet_01v8 ad=0p pd=0u as=0p ps=0u w=2.025e+07u l=150000u
X23 VDDIN Pdrive VSSOUT VSSOUT sky130_fd_pr__pfet_01v8 ad=0p pd=0u as=0p ps=0u w=2.025e+07u l=150000u
X24 VDDIN Pdrive VSSOUT VSSOUT sky130_fd_pr__pfet_01v8 ad=0p pd=0u as=0p ps=0u w=2.025e+07u l=150000u
X25 VDDIN Pdrive VSSOUT VSSOUT sky130_fd_pr__pfet_01v8 ad=0p pd=0u as=0p ps=0u w=2.025e+07u l=150000u
X26 VDDIN Pdrive VSSOUT VSSOUT sky130_fd_pr__pfet_01v8 ad=0p pd=0u as=0p ps=0u w=2.025e+07u l=150000u
X27 VDDIN Pdrive VSSOUT VSSOUT sky130_fd_pr__pfet_01v8 ad=0p pd=0u as=0p ps=0u w=2.025e+07u l=150000u
X28 VDDIN Pdrive VSSOUT VSSOUT sky130_fd_pr__pfet_01v8 ad=0p pd=0u as=0p ps=0u w=2.025e+07u l=150000u
X29 VDDIN Pdrive VSSOUT VSSOUT sky130_fd_pr__pfet_01v8 ad=0p pd=0u as=0p ps=0u w=2.025e+07u l=150000u
X30 VDDIN Pdrive VSSOUT VSSOUT sky130_fd_pr__pfet_01v8 ad=0p pd=0u as=0p ps=0u w=2.025e+07u l=150000u
X31 VDDIN Pdrive VSSOUT VSSOUT sky130_fd_pr__pfet_01v8 ad=0p pd=0u as=0p ps=0u w=2.025e+07u l=150000u
X32 VDDIN Pdrive VSSOUT VSSOUT sky130_fd_pr__pfet_01v8 ad=0p pd=0u as=0p ps=0u w=2.025e+07u l=150000u
X33 VDDIN Pdrive VSSOUT VSSOUT sky130_fd_pr__pfet_01v8 ad=0p pd=0u as=0p ps=0u w=2.025e+07u l=150000u
X34 VDDIN Pdrive VSSOUT VSSOUT sky130_fd_pr__pfet_01v8 ad=0p pd=0u as=0p ps=0u w=2.025e+07u l=150000u
X35 VDDIN Pdrive VSSOUT VSSOUT sky130_fd_pr__pfet_01v8 ad=0p pd=0u as=0p ps=0u w=2.025e+07u l=150000u
X36 VDDIN Pdrive VSSOUT VSSOUT sky130_fd_pr__pfet_01v8 ad=0p pd=0u as=0p ps=0u w=2.025e+07u l=150000u
X37 VDDIN Pdrive VSSOUT VSSOUT sky130_fd_pr__pfet_01v8 ad=0p pd=0u as=0p ps=0u w=2.025e+07u l=150000u
X38 VDDIN Pdrive VSSOUT VSSOUT sky130_fd_pr__pfet_01v8 ad=0p pd=0u as=0p ps=0u w=2.025e+07u l=150000u
X39 VDDIN Pdrive VSSOUT VSSOUT sky130_fd_pr__pfet_01v8 ad=0p pd=0u as=0p ps=0u w=2.025e+07u l=150000u
X40 VDDIN Pdrive VSSOUT VSSOUT sky130_fd_pr__pfet_01v8 ad=0p pd=0u as=0p ps=0u w=2.025e+07u l=150000u
X41 VDDIN Pdrive VSSOUT VSSOUT sky130_fd_pr__pfet_01v8 ad=0p pd=0u as=0p ps=0u w=2.025e+07u l=150000u
X42 VDDIN Pdrive VSSOUT VSSOUT sky130_fd_pr__pfet_01v8 ad=0p pd=0u as=0p ps=0u w=2.025e+07u l=150000u
X43 VDDIN Pdrive VSSOUT VSSOUT sky130_fd_pr__pfet_01v8 ad=0p pd=0u as=0p ps=0u w=2.025e+07u l=150000u
X44 VDDIN Pdrive VSSOUT VSSOUT sky130_fd_pr__pfet_01v8 ad=0p pd=0u as=0p ps=0u w=2.025e+07u l=150000u
X45 VDDIN Pdrive VSSOUT VSSOUT sky130_fd_pr__pfet_01v8 ad=0p pd=0u as=0p ps=0u w=2.025e+07u l=150000u
X46 VDDIN Pdrive VSSOUT VSSOUT sky130_fd_pr__pfet_01v8 ad=0p pd=0u as=0p ps=0u w=2.025e+07u l=150000u
X47 VDDIN Pdrive VSSOUT VSSOUT sky130_fd_pr__pfet_01v8 ad=0p pd=0u as=0p ps=0u w=2.025e+07u l=150000u
X48 VDDIN Pdrive VSSOUT VSSOUT sky130_fd_pr__pfet_01v8 ad=0p pd=0u as=0p ps=0u w=2.025e+07u l=150000u
X49 VDDIN Pdrive VSSOUT VSSOUT sky130_fd_pr__pfet_01v8 ad=0p pd=0u as=0p ps=0u w=2.025e+07u l=150000u
X50 VDDIN Pdrive VSSOUT VSSOUT sky130_fd_pr__pfet_01v8 ad=0p pd=0u as=0p ps=0u w=2.025e+07u l=150000u
X51 VDDIN Pdrive VSSOUT VSSOUT sky130_fd_pr__pfet_01v8 ad=0p pd=0u as=0p ps=0u w=2.025e+07u l=150000u
X52 VDDIN Pdrive VSSOUT VSSOUT sky130_fd_pr__pfet_01v8 ad=0p pd=0u as=0p ps=0u w=2.025e+07u l=150000u
X53 VDDIN Pdrive VSSOUT VSSOUT sky130_fd_pr__pfet_01v8 ad=0p pd=0u as=0p ps=0u w=2.025e+07u l=150000u
X54 VDDIN Pdrive VSSOUT VSSOUT sky130_fd_pr__pfet_01v8 ad=0p pd=0u as=0p ps=0u w=2.025e+07u l=150000u
X55 VDDIN Pdrive VSSOUT VSSOUT sky130_fd_pr__pfet_01v8 ad=0p pd=0u as=0p ps=0u w=2.025e+07u l=150000u
X56 VDDIN Pdrive VSSOUT VSSOUT sky130_fd_pr__pfet_01v8 ad=0p pd=0u as=0p ps=0u w=2.025e+07u l=150000u
X57 VDDIN Pdrive VSSOUT VSSOUT sky130_fd_pr__pfet_01v8 ad=0p pd=0u as=0p ps=0u w=2.025e+07u l=150000u
X58 VDDIN Pdrive VSSOUT VSSOUT sky130_fd_pr__pfet_01v8 ad=0p pd=0u as=0p ps=0u w=2.025e+07u l=150000u
X59 VDDIN Pdrive VSSOUT VSSOUT sky130_fd_pr__pfet_01v8 ad=0p pd=0u as=0p ps=0u w=2.025e+07u l=150000u
X60 VDDIN Pdrive VSSOUT VSSOUT sky130_fd_pr__pfet_01v8 ad=0p pd=0u as=0p ps=0u w=2.025e+07u l=150000u
X61 VDDIN Pdrive VSSOUT VSSOUT sky130_fd_pr__pfet_01v8 ad=0p pd=0u as=0p ps=0u w=2.025e+07u l=150000u
X62 VDDIN Pdrive VSSOUT VSSOUT sky130_fd_pr__pfet_01v8 ad=0p pd=0u as=0p ps=0u w=2.025e+07u l=150000u
X63 VDDIN Pdrive VSSOUT VSSOUT sky130_fd_pr__pfet_01v8 ad=0p pd=0u as=0p ps=0u w=2.025e+07u l=150000u
X64 VDDIN Pdrive VSSOUT VSSOUT sky130_fd_pr__pfet_01v8 ad=0p pd=0u as=0p ps=0u w=2.025e+07u l=150000u
X65 VDDIN Pdrive VSSOUT VSSOUT sky130_fd_pr__pfet_01v8 ad=0p pd=0u as=0p ps=0u w=2.025e+07u l=150000u
X66 VDDIN Pdrive VSSOUT VSSOUT sky130_fd_pr__pfet_01v8 ad=0p pd=0u as=0p ps=0u w=2.025e+07u l=150000u
X67 VDDIN Pdrive VSSOUT VSSOUT sky130_fd_pr__pfet_01v8 ad=0p pd=0u as=0p ps=0u w=2.025e+07u l=150000u
X68 VDDIN Pdrive VSSOUT VSSOUT sky130_fd_pr__pfet_01v8 ad=0p pd=0u as=0p ps=0u w=2.025e+07u l=150000u
X69 VDDIN Pdrive VSSOUT VSSOUT sky130_fd_pr__pfet_01v8 ad=0p pd=0u as=0p ps=0u w=2.025e+07u l=150000u
X70 VDDIN Pdrive VSSOUT VSSOUT sky130_fd_pr__pfet_01v8 ad=0p pd=0u as=0p ps=0u w=2.025e+07u l=150000u
X71 VDDIN Pdrive VSSOUT VSSOUT sky130_fd_pr__pfet_01v8 ad=0p pd=0u as=0p ps=0u w=2.025e+07u l=150000u
X72 VDDIN Pdrive VSSOUT VSSOUT sky130_fd_pr__pfet_01v8 ad=0p pd=0u as=0p ps=0u w=2.025e+07u l=150000u
X73 VDDIN Pdrive VSSOUT VSSOUT sky130_fd_pr__pfet_01v8 ad=0p pd=0u as=0p ps=0u w=2.025e+07u l=150000u
X74 VDDIN Pdrive VSSOUT VSSOUT sky130_fd_pr__pfet_01v8 ad=0p pd=0u as=0p ps=0u w=2.025e+07u l=150000u
X75 VDDIN Pdrive VSSOUT VSSOUT sky130_fd_pr__pfet_01v8 ad=0p pd=0u as=0p ps=0u w=2.025e+07u l=150000u
X76 VDDIN Pdrive VSSOUT VSSOUT sky130_fd_pr__pfet_01v8 ad=0p pd=0u as=0p ps=0u w=2.025e+07u l=150000u
X77 VDDIN Pdrive VSSOUT VSSOUT sky130_fd_pr__pfet_01v8 ad=0p pd=0u as=0p ps=0u w=2.025e+07u l=150000u
X78 VDDIN Pdrive VSSOUT VSSOUT sky130_fd_pr__pfet_01v8 ad=0p pd=0u as=0p ps=0u w=2.025e+07u l=150000u
X79 VDDIN Pdrive VSSOUT VSSOUT sky130_fd_pr__pfet_01v8 ad=0p pd=0u as=0p ps=0u w=2.025e+07u l=150000u
X80 VDDIN Pdrive VSSOUT VSSOUT sky130_fd_pr__pfet_01v8 ad=0p pd=0u as=0p ps=0u w=2.025e+07u l=150000u
X81 VDDIN Pdrive VSSOUT VSSOUT sky130_fd_pr__pfet_01v8 ad=0p pd=0u as=0p ps=0u w=2.025e+07u l=150000u
X82 VDDIN Pdrive VSSOUT VSSOUT sky130_fd_pr__pfet_01v8 ad=0p pd=0u as=0p ps=0u w=2.025e+07u l=150000u
X83 VDDIN Pdrive VSSOUT VSSOUT sky130_fd_pr__pfet_01v8 ad=0p pd=0u as=0p ps=0u w=2.025e+07u l=150000u
X84 VDDIN Pdrive VSSOUT VSSOUT sky130_fd_pr__pfet_01v8 ad=0p pd=0u as=0p ps=0u w=2.025e+07u l=150000u
X85 VDDIN Pdrive VSSOUT VSSOUT sky130_fd_pr__pfet_01v8 ad=0p pd=0u as=0p ps=0u w=2.025e+07u l=150000u
X86 VDDIN Pdrive VSSOUT VSSOUT sky130_fd_pr__pfet_01v8 ad=0p pd=0u as=0p ps=0u w=2.025e+07u l=150000u
X87 VDDIN Pdrive VSSOUT VSSOUT sky130_fd_pr__pfet_01v8 ad=0p pd=0u as=0p ps=0u w=2.025e+07u l=150000u
X88 VDDIN Pdrive VSSOUT VSSOUT sky130_fd_pr__pfet_01v8 ad=0p pd=0u as=0p ps=0u w=2.025e+07u l=150000u
X89 VDDIN Pdrive VSSOUT VSSOUT sky130_fd_pr__pfet_01v8 ad=0p pd=0u as=0p ps=0u w=2.025e+07u l=150000u
X90 VDDIN Pdrive VSSOUT VSSOUT sky130_fd_pr__pfet_01v8 ad=0p pd=0u as=0p ps=0u w=2.025e+07u l=150000u
X91 VDDIN Pdrive VSSOUT VSSOUT sky130_fd_pr__pfet_01v8 ad=0p pd=0u as=0p ps=0u w=2.025e+07u l=150000u
X92 VDDIN Pdrive VSSOUT VSSOUT sky130_fd_pr__pfet_01v8 ad=0p pd=0u as=0p ps=0u w=2.025e+07u l=150000u
X93 VDDIN Pdrive VSSOUT VSSOUT sky130_fd_pr__pfet_01v8 ad=0p pd=0u as=0p ps=0u w=2.025e+07u l=150000u
X94 VDDIN Pdrive VSSOUT VSSOUT sky130_fd_pr__pfet_01v8 ad=0p pd=0u as=0p ps=0u w=2.025e+07u l=150000u
X95 VDDIN Pdrive VSSOUT VSSOUT sky130_fd_pr__pfet_01v8 ad=0p pd=0u as=0p ps=0u w=2.025e+07u l=150000u
X96 VDDIN Pdrive VSSOUT VSSOUT sky130_fd_pr__pfet_01v8 ad=0p pd=0u as=0p ps=0u w=2.025e+07u l=150000u
X97 VDDIN Pdrive VSSOUT VSSOUT sky130_fd_pr__pfet_01v8 ad=0p pd=0u as=0p ps=0u w=2.025e+07u l=150000u
X98 VDDIN Pdrive VSSOUT VSSOUT sky130_fd_pr__pfet_01v8 ad=0p pd=0u as=0p ps=0u w=2.025e+07u l=150000u
X99 VDDIN Pdrive VSSOUT VSSOUT sky130_fd_pr__pfet_01v8 ad=0p pd=0u as=0p ps=0u w=2.025e+07u l=150000u
X100 VDDIN Pdrive VSSOUT VSSOUT sky130_fd_pr__pfet_01v8 ad=0p pd=0u as=0p ps=0u w=2.025e+07u l=150000u
X101 VDDIN Pdrive VSSOUT VSSOUT sky130_fd_pr__pfet_01v8 ad=0p pd=0u as=0p ps=0u w=2.025e+07u l=150000u
X102 VDDIN Pdrive VSSOUT VSSOUT sky130_fd_pr__pfet_01v8 ad=0p pd=0u as=0p ps=0u w=2.025e+07u l=150000u
X103 VDDIN Pdrive VSSOUT VSSOUT sky130_fd_pr__pfet_01v8 ad=0p pd=0u as=0p ps=0u w=2.025e+07u l=150000u
X104 VDDIN Pdrive VSSOUT VSSOUT sky130_fd_pr__pfet_01v8 ad=0p pd=0u as=0p ps=0u w=2.025e+07u l=150000u
X105 VDDIN Pdrive VSSOUT VSSOUT sky130_fd_pr__pfet_01v8 ad=0p pd=0u as=0p ps=0u w=2.025e+07u l=150000u
X106 VDDIN Pdrive VSSOUT VSSOUT sky130_fd_pr__pfet_01v8 ad=0p pd=0u as=0p ps=0u w=2.025e+07u l=150000u
X107 VDDIN Pdrive VSSOUT VSSOUT sky130_fd_pr__pfet_01v8 ad=0p pd=0u as=0p ps=0u w=2.025e+07u l=150000u
X108 VDDIN Pdrive VSSOUT VSSOUT sky130_fd_pr__pfet_01v8 ad=0p pd=0u as=0p ps=0u w=2.025e+07u l=150000u
X109 VDDIN Pdrive VSSOUT VSSOUT sky130_fd_pr__pfet_01v8 ad=0p pd=0u as=0p ps=0u w=2.025e+07u l=150000u
X110 VDDIN Pdrive VSSOUT VSSOUT sky130_fd_pr__pfet_01v8 ad=0p pd=0u as=0p ps=0u w=2.025e+07u l=150000u
X111 VDDIN Pdrive VSSOUT VSSOUT sky130_fd_pr__pfet_01v8 ad=0p pd=0u as=0p ps=0u w=2.025e+07u l=150000u
X112 VDDIN Pdrive VSSOUT VSSOUT sky130_fd_pr__pfet_01v8 ad=0p pd=0u as=0p ps=0u w=2.025e+07u l=150000u
X113 VDDIN Pdrive VSSOUT VSSOUT sky130_fd_pr__pfet_01v8 ad=0p pd=0u as=0p ps=0u w=2.025e+07u l=150000u
X114 VDDIN Pdrive VSSOUT VSSOUT sky130_fd_pr__pfet_01v8 ad=0p pd=0u as=0p ps=0u w=2.025e+07u l=150000u
X115 VDDIN Pdrive VSSOUT VSSOUT sky130_fd_pr__pfet_01v8 ad=0p pd=0u as=0p ps=0u w=2.025e+07u l=150000u
X116 VDDIN Pdrive VSSOUT VSSOUT sky130_fd_pr__pfet_01v8 ad=0p pd=0u as=0p ps=0u w=2.025e+07u l=150000u
X117 VDDIN Pdrive VSSOUT VSSOUT sky130_fd_pr__pfet_01v8 ad=0p pd=0u as=0p ps=0u w=2.025e+07u l=150000u
X118 VDDIN Pdrive VSSOUT VSSOUT sky130_fd_pr__pfet_01v8 ad=0p pd=0u as=0p ps=0u w=2.025e+07u l=150000u
X119 VDDIN Pdrive VSSOUT VSSOUT sky130_fd_pr__pfet_01v8 ad=0p pd=0u as=0p ps=0u w=2.025e+07u l=150000u
X120 VDDIN Pdrive VSSOUT VSSOUT sky130_fd_pr__pfet_01v8 ad=0p pd=0u as=0p ps=0u w=2.025e+07u l=150000u
X121 VDDIN Pdrive VSSOUT VSSOUT sky130_fd_pr__pfet_01v8 ad=0p pd=0u as=0p ps=0u w=2.025e+07u l=150000u
X122 VDDIN Pdrive VSSOUT VSSOUT sky130_fd_pr__pfet_01v8 ad=0p pd=0u as=0p ps=0u w=2.025e+07u l=150000u
X123 VDDIN Pdrive VSSOUT VSSOUT sky130_fd_pr__pfet_01v8 ad=0p pd=0u as=0p ps=0u w=2.025e+07u l=150000u
X124 VDDIN Pdrive VSSOUT VSSOUT sky130_fd_pr__pfet_01v8 ad=0p pd=0u as=0p ps=0u w=2.025e+07u l=150000u
X125 VDDIN Pdrive VSSOUT VSSOUT sky130_fd_pr__pfet_01v8 ad=0p pd=0u as=0p ps=0u w=2.025e+07u l=150000u
X126 VDDIN Pdrive VSSOUT VSSOUT sky130_fd_pr__pfet_01v8 ad=0p pd=0u as=0p ps=0u w=2.025e+07u l=150000u
X127 VDDIN Pdrive VSSOUT VSSOUT sky130_fd_pr__pfet_01v8 ad=0p pd=0u as=0p ps=0u w=2.025e+07u l=150000u
X128 VDDIN Pdrive VSSOUT VSSOUT sky130_fd_pr__pfet_01v8 ad=0p pd=0u as=0p ps=0u w=2.025e+07u l=150000u
X129 VDDIN Pdrive VSSOUT VSSOUT sky130_fd_pr__pfet_01v8 ad=0p pd=0u as=0p ps=0u w=2.025e+07u l=150000u
X130 VDDIN Pdrive VSSOUT VSSOUT sky130_fd_pr__pfet_01v8 ad=0p pd=0u as=0p ps=0u w=2.025e+07u l=150000u
X131 VDDIN Pdrive VSSOUT VSSOUT sky130_fd_pr__pfet_01v8 ad=0p pd=0u as=0p ps=0u w=2.025e+07u l=150000u
X132 VDDIN Pdrive VSSOUT VSSOUT sky130_fd_pr__pfet_01v8 ad=0p pd=0u as=0p ps=0u w=2.025e+07u l=150000u
X133 VDDIN Pdrive VSSOUT VSSOUT sky130_fd_pr__pfet_01v8 ad=0p pd=0u as=0p ps=0u w=2.025e+07u l=150000u
X134 VDDIN Pdrive VSSOUT VSSOUT sky130_fd_pr__pfet_01v8 ad=0p pd=0u as=0p ps=0u w=2.025e+07u l=150000u
X135 VDDIN Pdrive VSSOUT VSSOUT sky130_fd_pr__pfet_01v8 ad=0p pd=0u as=0p ps=0u w=2.025e+07u l=150000u
X136 VDDIN Pdrive VSSOUT VSSOUT sky130_fd_pr__pfet_01v8 ad=0p pd=0u as=0p ps=0u w=2.025e+07u l=150000u
X137 VDDIN Pdrive VSSOUT VSSOUT sky130_fd_pr__pfet_01v8 ad=0p pd=0u as=0p ps=0u w=2.025e+07u l=150000u
X138 VDDIN Pdrive VSSOUT VSSOUT sky130_fd_pr__pfet_01v8 ad=0p pd=0u as=0p ps=0u w=2.025e+07u l=150000u
X139 VDDIN Pdrive VSSOUT VSSOUT sky130_fd_pr__pfet_01v8 ad=0p pd=0u as=0p ps=0u w=2.025e+07u l=150000u
X140 VDDIN Pdrive VSSOUT VSSOUT sky130_fd_pr__pfet_01v8 ad=0p pd=0u as=0p ps=0u w=2.025e+07u l=150000u
X141 VDDIN Pdrive VSSOUT VSSOUT sky130_fd_pr__pfet_01v8 ad=0p pd=0u as=0p ps=0u w=2.025e+07u l=150000u
X142 VDDIN Pdrive VSSOUT VSSOUT sky130_fd_pr__pfet_01v8 ad=0p pd=0u as=0p ps=0u w=2.025e+07u l=150000u
X143 VDDIN Pdrive VSSOUT VSSOUT sky130_fd_pr__pfet_01v8 ad=0p pd=0u as=0p ps=0u w=2.025e+07u l=150000u
X144 VDDIN Pdrive VSSOUT VSSOUT sky130_fd_pr__pfet_01v8 ad=0p pd=0u as=0p ps=0u w=2.025e+07u l=150000u
X145 VDDIN Pdrive VSSOUT VSSOUT sky130_fd_pr__pfet_01v8 ad=0p pd=0u as=0p ps=0u w=2.025e+07u l=150000u
X146 VDDIN Pdrive VSSOUT VSSOUT sky130_fd_pr__pfet_01v8 ad=0p pd=0u as=0p ps=0u w=2.025e+07u l=150000u
X147 VDDIN Pdrive VSSOUT VSSOUT sky130_fd_pr__pfet_01v8 ad=0p pd=0u as=0p ps=0u w=2.025e+07u l=150000u
X148 VDDIN Pdrive VSSOUT VSSOUT sky130_fd_pr__pfet_01v8 ad=0p pd=0u as=0p ps=0u w=2.025e+07u l=150000u
X149 VDDIN Pdrive VSSOUT VSSOUT sky130_fd_pr__pfet_01v8 ad=0p pd=0u as=0p ps=0u w=2.025e+07u l=150000u
X150 VDDIN Pdrive VSSOUT VSSOUT sky130_fd_pr__pfet_01v8 ad=0p pd=0u as=0p ps=0u w=2.025e+07u l=150000u
X151 VDDIN Pdrive VSSOUT VSSOUT sky130_fd_pr__pfet_01v8 ad=0p pd=0u as=0p ps=0u w=2.025e+07u l=150000u
X152 VDDIN Pdrive VSSOUT VSSOUT sky130_fd_pr__pfet_01v8 ad=0p pd=0u as=0p ps=0u w=2.025e+07u l=150000u
X153 VDDIN Pdrive VSSOUT VSSOUT sky130_fd_pr__pfet_01v8 ad=0p pd=0u as=0p ps=0u w=2.025e+07u l=150000u
X154 VDDIN Pdrive VSSOUT VSSOUT sky130_fd_pr__pfet_01v8 ad=0p pd=0u as=0p ps=0u w=2.025e+07u l=150000u
X155 VDDIN Pdrive VSSOUT VSSOUT sky130_fd_pr__pfet_01v8 ad=0p pd=0u as=0p ps=0u w=2.025e+07u l=150000u
X156 VDDIN Pdrive VSSOUT VSSOUT sky130_fd_pr__pfet_01v8 ad=0p pd=0u as=0p ps=0u w=2.025e+07u l=150000u
X157 VDDIN Pdrive VSSOUT VSSOUT sky130_fd_pr__pfet_01v8 ad=0p pd=0u as=0p ps=0u w=2.025e+07u l=150000u
X158 VDDIN Pdrive VSSOUT VSSOUT sky130_fd_pr__pfet_01v8 ad=0p pd=0u as=0p ps=0u w=2.025e+07u l=150000u
X159 VDDIN Pdrive VSSOUT VSSOUT sky130_fd_pr__pfet_01v8 ad=0p pd=0u as=0p ps=0u w=2.025e+07u l=150000u
X160 VDDIN Pdrive VSSOUT VSSOUT sky130_fd_pr__pfet_01v8 ad=0p pd=0u as=0p ps=0u w=2.025e+07u l=150000u
X161 VDDIN Pdrive VSSOUT VSSOUT sky130_fd_pr__pfet_01v8 ad=0p pd=0u as=0p ps=0u w=2.025e+07u l=150000u
X162 VDDIN Pdrive VSSOUT VSSOUT sky130_fd_pr__pfet_01v8 ad=0p pd=0u as=0p ps=0u w=2.025e+07u l=150000u
X163 VDDIN Pdrive VSSOUT VSSOUT sky130_fd_pr__pfet_01v8 ad=0p pd=0u as=0p ps=0u w=2.025e+07u l=150000u
X164 VDDIN Pdrive VSSOUT VSSOUT sky130_fd_pr__pfet_01v8 ad=0p pd=0u as=0p ps=0u w=2.025e+07u l=150000u
X165 VDDIN Pdrive VSSOUT VSSOUT sky130_fd_pr__pfet_01v8 ad=0p pd=0u as=0p ps=0u w=2.025e+07u l=150000u
X166 VDDIN Pdrive VSSOUT VSSOUT sky130_fd_pr__pfet_01v8 ad=0p pd=0u as=0p ps=0u w=2.025e+07u l=150000u
X167 VDDIN Pdrive VSSOUT VSSOUT sky130_fd_pr__pfet_01v8 ad=0p pd=0u as=0p ps=0u w=2.025e+07u l=150000u
X168 VDDIN Pdrive VSSOUT VSSOUT sky130_fd_pr__pfet_01v8 ad=0p pd=0u as=0p ps=0u w=2.025e+07u l=150000u
X169 VDDIN Pdrive VSSOUT VSSOUT sky130_fd_pr__pfet_01v8 ad=0p pd=0u as=0p ps=0u w=2.025e+07u l=150000u
X170 VDDIN Pdrive VSSOUT VSSOUT sky130_fd_pr__pfet_01v8 ad=0p pd=0u as=0p ps=0u w=2.025e+07u l=150000u
X171 VDDIN Pdrive VSSOUT VSSOUT sky130_fd_pr__pfet_01v8 ad=0p pd=0u as=0p ps=0u w=2.025e+07u l=150000u
X172 VDDIN Pdrive VSSOUT VSSOUT sky130_fd_pr__pfet_01v8 ad=0p pd=0u as=0p ps=0u w=2.025e+07u l=150000u
X173 VDDIN Pdrive VSSOUT VSSOUT sky130_fd_pr__pfet_01v8 ad=0p pd=0u as=0p ps=0u w=2.025e+07u l=150000u
X174 VDDIN Pdrive VSSOUT VSSOUT sky130_fd_pr__pfet_01v8 ad=0p pd=0u as=0p ps=0u w=2.025e+07u l=150000u
X175 VDDIN Pdrive VSSOUT VSSOUT sky130_fd_pr__pfet_01v8 ad=0p pd=0u as=0p ps=0u w=2.025e+07u l=150000u
X176 VDDIN Pdrive VSSOUT VSSOUT sky130_fd_pr__pfet_01v8 ad=0p pd=0u as=0p ps=0u w=2.025e+07u l=150000u
X177 VDDIN Pdrive VSSOUT VSSOUT sky130_fd_pr__pfet_01v8 ad=0p pd=0u as=0p ps=0u w=2.025e+07u l=150000u
X178 VDDIN Pdrive VSSOUT VSSOUT sky130_fd_pr__pfet_01v8 ad=0p pd=0u as=0p ps=0u w=2.025e+07u l=150000u
X179 VDDIN Pdrive VSSOUT VSSOUT sky130_fd_pr__pfet_01v8 ad=0p pd=0u as=0p ps=0u w=2.025e+07u l=150000u
X180 VDDIN Pdrive VSSOUT VSSOUT sky130_fd_pr__pfet_01v8 ad=0p pd=0u as=0p ps=0u w=2.025e+07u l=150000u
X181 VDDIN Pdrive VSSOUT VSSOUT sky130_fd_pr__pfet_01v8 ad=0p pd=0u as=0p ps=0u w=2.025e+07u l=150000u
X182 VDDIN Pdrive VSSOUT VSSOUT sky130_fd_pr__pfet_01v8 ad=0p pd=0u as=0p ps=0u w=2.025e+07u l=150000u
X183 VDDIN Pdrive VSSOUT VSSOUT sky130_fd_pr__pfet_01v8 ad=0p pd=0u as=0p ps=0u w=2.025e+07u l=150000u
X184 VDDIN Pdrive VSSOUT VSSOUT sky130_fd_pr__pfet_01v8 ad=0p pd=0u as=0p ps=0u w=2.025e+07u l=150000u
X185 VDDIN Pdrive VSSOUT VSSOUT sky130_fd_pr__pfet_01v8 ad=0p pd=0u as=0p ps=0u w=2.025e+07u l=150000u
X186 VDDIN Pdrive VSSOUT VSSOUT sky130_fd_pr__pfet_01v8 ad=0p pd=0u as=0p ps=0u w=2.025e+07u l=150000u
X187 VDDIN Pdrive VSSOUT VSSOUT sky130_fd_pr__pfet_01v8 ad=0p pd=0u as=0p ps=0u w=2.025e+07u l=150000u
X188 VDDIN Pdrive VSSOUT VSSOUT sky130_fd_pr__pfet_01v8 ad=0p pd=0u as=0p ps=0u w=2.025e+07u l=150000u
X189 VDDIN Pdrive VSSOUT VSSOUT sky130_fd_pr__pfet_01v8 ad=0p pd=0u as=0p ps=0u w=2.025e+07u l=150000u
X190 VDDIN Pdrive VSSOUT VSSOUT sky130_fd_pr__pfet_01v8 ad=0p pd=0u as=0p ps=0u w=2.025e+07u l=150000u
X191 VDDIN Pdrive VSSOUT VSSOUT sky130_fd_pr__pfet_01v8 ad=0p pd=0u as=0p ps=0u w=2.025e+07u l=150000u
X192 VDDIN Pdrive VSSOUT VSSOUT sky130_fd_pr__pfet_01v8 ad=0p pd=0u as=0p ps=0u w=2.025e+07u l=150000u
X193 VDDIN Pdrive VSSOUT VSSOUT sky130_fd_pr__pfet_01v8 ad=0p pd=0u as=0p ps=0u w=2.025e+07u l=150000u
X194 VDDIN Pdrive VSSOUT VSSOUT sky130_fd_pr__pfet_01v8 ad=0p pd=0u as=0p ps=0u w=2.025e+07u l=150000u
X195 VDDIN Pdrive VSSOUT VSSOUT sky130_fd_pr__pfet_01v8 ad=0p pd=0u as=0p ps=0u w=2.025e+07u l=150000u
X196 VDDIN Pdrive VSSOUT VSSOUT sky130_fd_pr__pfet_01v8 ad=0p pd=0u as=0p ps=0u w=2.025e+07u l=150000u
X197 VDDIN Pdrive VSSOUT VSSOUT sky130_fd_pr__pfet_01v8 ad=0p pd=0u as=0p ps=0u w=2.025e+07u l=150000u
X198 VDDIN Pdrive VSSOUT VSSOUT sky130_fd_pr__pfet_01v8 ad=0p pd=0u as=0p ps=0u w=2.025e+07u l=150000u
X199 VDDIN Pdrive VSSOUT VSSOUT sky130_fd_pr__pfet_01v8 ad=0p pd=0u as=0p ps=0u w=2.025e+07u l=150000u
X200 VDDIN Pdrive VSSOUT VSSOUT sky130_fd_pr__pfet_01v8 ad=0p pd=0u as=0p ps=0u w=2.025e+07u l=150000u
X201 VDDIN Pdrive VSSOUT VSSOUT sky130_fd_pr__pfet_01v8 ad=0p pd=0u as=0p ps=0u w=2.025e+07u l=150000u
X202 VDDIN Pdrive VSSOUT VSSOUT sky130_fd_pr__pfet_01v8 ad=0p pd=0u as=0p ps=0u w=2.025e+07u l=150000u
X203 VDDIN Pdrive VSSOUT VSSOUT sky130_fd_pr__pfet_01v8 ad=0p pd=0u as=0p ps=0u w=2.025e+07u l=150000u
X204 VDDIN Pdrive VSSOUT VSSOUT sky130_fd_pr__pfet_01v8 ad=0p pd=0u as=0p ps=0u w=2.025e+07u l=150000u
X205 VDDIN Pdrive VSSOUT VSSOUT sky130_fd_pr__pfet_01v8 ad=0p pd=0u as=0p ps=0u w=2.025e+07u l=150000u
X206 VDDIN Pdrive VSSOUT VSSOUT sky130_fd_pr__pfet_01v8 ad=0p pd=0u as=0p ps=0u w=2.025e+07u l=150000u
X207 VDDIN Pdrive VSSOUT VSSOUT sky130_fd_pr__pfet_01v8 ad=0p pd=0u as=0p ps=0u w=2.025e+07u l=150000u
X208 VDDIN Pdrive VSSOUT VSSOUT sky130_fd_pr__pfet_01v8 ad=0p pd=0u as=0p ps=0u w=2.025e+07u l=150000u
X209 VDDIN Pdrive VSSOUT VSSOUT sky130_fd_pr__pfet_01v8 ad=0p pd=0u as=0p ps=0u w=2.025e+07u l=150000u
X210 VDDIN Pdrive VSSOUT VSSOUT sky130_fd_pr__pfet_01v8 ad=0p pd=0u as=0p ps=0u w=2.025e+07u l=150000u
X211 VDDIN Pdrive VSSOUT VSSOUT sky130_fd_pr__pfet_01v8 ad=0p pd=0u as=0p ps=0u w=2.025e+07u l=150000u
X212 VDDIN Pdrive VSSOUT VSSOUT sky130_fd_pr__pfet_01v8 ad=0p pd=0u as=0p ps=0u w=2.025e+07u l=150000u
X213 VDDIN Pdrive VSSOUT VSSOUT sky130_fd_pr__pfet_01v8 ad=0p pd=0u as=0p ps=0u w=2.025e+07u l=150000u
X214 VDDIN Pdrive VSSOUT VSSOUT sky130_fd_pr__pfet_01v8 ad=0p pd=0u as=0p ps=0u w=2.025e+07u l=150000u
X215 VDDIN Pdrive VSSOUT VSSOUT sky130_fd_pr__pfet_01v8 ad=0p pd=0u as=0p ps=0u w=2.025e+07u l=150000u
X216 VDDIN Pdrive VSSOUT VSSOUT sky130_fd_pr__pfet_01v8 ad=0p pd=0u as=0p ps=0u w=2.025e+07u l=150000u
X217 VDDIN Pdrive VSSOUT VSSOUT sky130_fd_pr__pfet_01v8 ad=0p pd=0u as=0p ps=0u w=2.025e+07u l=150000u
X218 VDDIN Pdrive VSSOUT VSSOUT sky130_fd_pr__pfet_01v8 ad=0p pd=0u as=0p ps=0u w=2.025e+07u l=150000u
X219 VDDIN Pdrive VSSOUT VSSOUT sky130_fd_pr__pfet_01v8 ad=0p pd=0u as=0p ps=0u w=2.025e+07u l=150000u
X220 VDDIN Pdrive VSSOUT VSSOUT sky130_fd_pr__pfet_01v8 ad=0p pd=0u as=0p ps=0u w=2.025e+07u l=150000u
X221 VDDIN Pdrive VSSOUT VSSOUT sky130_fd_pr__pfet_01v8 ad=0p pd=0u as=0p ps=0u w=2.025e+07u l=150000u
X222 VDDIN Pdrive VSSOUT VSSOUT sky130_fd_pr__pfet_01v8 ad=0p pd=0u as=0p ps=0u w=2.025e+07u l=150000u
X223 VDDIN Pdrive VSSOUT VSSOUT sky130_fd_pr__pfet_01v8 ad=0p pd=0u as=0p ps=0u w=2.025e+07u l=150000u
X224 VDDIN Pdrive VSSOUT VSSOUT sky130_fd_pr__pfet_01v8 ad=0p pd=0u as=0p ps=0u w=2.025e+07u l=150000u
X225 VDDIN Pdrive VSSOUT VSSOUT sky130_fd_pr__pfet_01v8 ad=0p pd=0u as=0p ps=0u w=2.025e+07u l=150000u
X226 VDDIN Pdrive VSSOUT VSSOUT sky130_fd_pr__pfet_01v8 ad=0p pd=0u as=0p ps=0u w=2.025e+07u l=150000u
X227 VDDIN Pdrive VSSOUT VSSOUT sky130_fd_pr__pfet_01v8 ad=0p pd=0u as=0p ps=0u w=2.025e+07u l=150000u
X228 VDDIN Pdrive VSSOUT VSSOUT sky130_fd_pr__pfet_01v8 ad=0p pd=0u as=0p ps=0u w=2.025e+07u l=150000u
X229 VDDIN Pdrive VSSOUT VSSOUT sky130_fd_pr__pfet_01v8 ad=0p pd=0u as=0p ps=0u w=2.025e+07u l=150000u
X230 VDDIN Pdrive VSSOUT VSSOUT sky130_fd_pr__pfet_01v8 ad=0p pd=0u as=0p ps=0u w=2.025e+07u l=150000u
X231 VDDIN Pdrive VSSOUT VSSOUT sky130_fd_pr__pfet_01v8 ad=0p pd=0u as=0p ps=0u w=2.025e+07u l=150000u
X232 VDDIN Pdrive VSSOUT VSSOUT sky130_fd_pr__pfet_01v8 ad=0p pd=0u as=0p ps=0u w=2.025e+07u l=150000u
X233 VDDIN Pdrive VSSOUT VSSOUT sky130_fd_pr__pfet_01v8 ad=0p pd=0u as=0p ps=0u w=2.025e+07u l=150000u
X234 VDDIN Pdrive VSSOUT VSSOUT sky130_fd_pr__pfet_01v8 ad=0p pd=0u as=0p ps=0u w=2.025e+07u l=150000u
X235 VDDIN Pdrive VSSOUT VSSOUT sky130_fd_pr__pfet_01v8 ad=0p pd=0u as=0p ps=0u w=2.025e+07u l=150000u
X236 VDDIN Pdrive VSSOUT VSSOUT sky130_fd_pr__pfet_01v8 ad=0p pd=0u as=0p ps=0u w=2.025e+07u l=150000u
X237 VDDIN Pdrive VSSOUT VSSOUT sky130_fd_pr__pfet_01v8 ad=0p pd=0u as=0p ps=0u w=2.025e+07u l=150000u
X238 VDDIN Pdrive VSSOUT VSSOUT sky130_fd_pr__pfet_01v8 ad=0p pd=0u as=0p ps=0u w=2.025e+07u l=150000u
X239 VDDIN Pdrive VSSOUT VSSOUT sky130_fd_pr__pfet_01v8 ad=0p pd=0u as=0p ps=0u w=2.025e+07u l=150000u
X240 VDDIN Pdrive VSSOUT VSSOUT sky130_fd_pr__pfet_01v8 ad=0p pd=0u as=0p ps=0u w=2.025e+07u l=150000u
X241 VDDIN Pdrive VSSOUT VSSOUT sky130_fd_pr__pfet_01v8 ad=0p pd=0u as=0p ps=0u w=2.025e+07u l=150000u
X242 VDDIN Pdrive VSSOUT VSSOUT sky130_fd_pr__pfet_01v8 ad=0p pd=0u as=0p ps=0u w=2.025e+07u l=150000u
X243 VDDIN Pdrive VSSOUT VSSOUT sky130_fd_pr__pfet_01v8 ad=0p pd=0u as=0p ps=0u w=2.025e+07u l=150000u
X244 VDDIN Pdrive VSSOUT VSSOUT sky130_fd_pr__pfet_01v8 ad=0p pd=0u as=0p ps=0u w=2.025e+07u l=150000u
X245 VDDIN Pdrive VSSOUT VSSOUT sky130_fd_pr__pfet_01v8 ad=0p pd=0u as=0p ps=0u w=2.025e+07u l=150000u
X246 VDDIN Pdrive VSSOUT VSSOUT sky130_fd_pr__pfet_01v8 ad=0p pd=0u as=0p ps=0u w=2.025e+07u l=150000u
X247 VDDIN Pdrive VSSOUT VSSOUT sky130_fd_pr__pfet_01v8 ad=0p pd=0u as=0p ps=0u w=2.025e+07u l=150000u
X248 VDDIN Pdrive VSSOUT VSSOUT sky130_fd_pr__pfet_01v8 ad=0p pd=0u as=0p ps=0u w=2.025e+07u l=150000u
X249 VDDIN Pdrive VSSOUT VSSOUT sky130_fd_pr__pfet_01v8 ad=0p pd=0u as=0p ps=0u w=2.025e+07u l=150000u
X250 VDDIN Pdrive VSSOUT VSSOUT sky130_fd_pr__pfet_01v8 ad=0p pd=0u as=0p ps=0u w=2.025e+07u l=150000u
X251 VDDIN Pdrive VSSOUT VSSOUT sky130_fd_pr__pfet_01v8 ad=0p pd=0u as=0p ps=0u w=2.025e+07u l=150000u
X252 VDDIN Pdrive VSSOUT VSSOUT sky130_fd_pr__pfet_01v8 ad=0p pd=0u as=0p ps=0u w=2.025e+07u l=150000u
X253 VDDIN Pdrive VSSOUT VSSOUT sky130_fd_pr__pfet_01v8 ad=0p pd=0u as=0p ps=0u w=2.025e+07u l=150000u
X254 VDDIN Pdrive VSSOUT VSSOUT sky130_fd_pr__pfet_01v8 ad=0p pd=0u as=0p ps=0u w=2.025e+07u l=150000u
X255 VDDIN Pdrive VSSOUT VSSOUT sky130_fd_pr__pfet_01v8 ad=0p pd=0u as=0p ps=0u w=2.025e+07u l=150000u
X256 VDDIN Pdrive VSSOUT VSSOUT sky130_fd_pr__pfet_01v8 ad=0p pd=0u as=0p ps=0u w=2.025e+07u l=150000u
X257 VDDIN Pdrive VSSOUT VSSOUT sky130_fd_pr__pfet_01v8 ad=0p pd=0u as=0p ps=0u w=2.025e+07u l=150000u
X258 VDDIN Pdrive VSSOUT VSSOUT sky130_fd_pr__pfet_01v8 ad=0p pd=0u as=0p ps=0u w=2.025e+07u l=150000u
X259 VDDIN Pdrive VSSOUT VSSOUT sky130_fd_pr__pfet_01v8 ad=0p pd=0u as=0p ps=0u w=2.025e+07u l=150000u
X260 VDDIN Pdrive VSSOUT VSSOUT sky130_fd_pr__pfet_01v8 ad=0p pd=0u as=0p ps=0u w=2.025e+07u l=150000u
X261 VDDIN Pdrive VSSOUT VSSOUT sky130_fd_pr__pfet_01v8 ad=0p pd=0u as=0p ps=0u w=2.025e+07u l=150000u
X262 VDDIN Pdrive VSSOUT VSSOUT sky130_fd_pr__pfet_01v8 ad=0p pd=0u as=0p ps=0u w=2.025e+07u l=150000u
X263 VDDIN Pdrive VSSOUT VSSOUT sky130_fd_pr__pfet_01v8 ad=0p pd=0u as=0p ps=0u w=2.025e+07u l=150000u
X264 VDDIN Pdrive VSSOUT VSSOUT sky130_fd_pr__pfet_01v8 ad=0p pd=0u as=0p ps=0u w=2.025e+07u l=150000u
X265 VDDIN Pdrive VSSOUT VSSOUT sky130_fd_pr__pfet_01v8 ad=0p pd=0u as=0p ps=0u w=2.025e+07u l=150000u
X266 VDDIN Pdrive VSSOUT VSSOUT sky130_fd_pr__pfet_01v8 ad=0p pd=0u as=0p ps=0u w=2.025e+07u l=150000u
X267 VDDIN Pdrive VSSOUT VSSOUT sky130_fd_pr__pfet_01v8 ad=0p pd=0u as=0p ps=0u w=2.025e+07u l=150000u
X268 VDDIN Pdrive VSSOUT VSSOUT sky130_fd_pr__pfet_01v8 ad=0p pd=0u as=0p ps=0u w=2.025e+07u l=150000u
X269 VDDIN Pdrive VSSOUT VSSOUT sky130_fd_pr__pfet_01v8 ad=0p pd=0u as=0p ps=0u w=2.025e+07u l=150000u
X270 VDDIN Pdrive VSSOUT VSSOUT sky130_fd_pr__pfet_01v8 ad=0p pd=0u as=0p ps=0u w=2.025e+07u l=150000u
X271 VDDIN Pdrive VSSOUT VSSOUT sky130_fd_pr__pfet_01v8 ad=0p pd=0u as=0p ps=0u w=2.025e+07u l=150000u
X272 VDDIN Pdrive VSSOUT VSSOUT sky130_fd_pr__pfet_01v8 ad=0p pd=0u as=0p ps=0u w=2.025e+07u l=150000u
X273 VDDIN Pdrive VSSOUT VSSOUT sky130_fd_pr__pfet_01v8 ad=0p pd=0u as=0p ps=0u w=2.025e+07u l=150000u
X274 VDDIN Pdrive VSSOUT VSSOUT sky130_fd_pr__pfet_01v8 ad=0p pd=0u as=0p ps=0u w=2.025e+07u l=150000u
X275 VDDIN Pdrive VSSOUT VSSOUT sky130_fd_pr__pfet_01v8 ad=0p pd=0u as=0p ps=0u w=2.025e+07u l=150000u
X276 VDDIN Pdrive VSSOUT VSSOUT sky130_fd_pr__pfet_01v8 ad=0p pd=0u as=0p ps=0u w=2.025e+07u l=150000u
X277 VDDIN Pdrive VSSOUT VSSOUT sky130_fd_pr__pfet_01v8 ad=0p pd=0u as=0p ps=0u w=2.025e+07u l=150000u
X278 VDDIN Pdrive VSSOUT VSSOUT sky130_fd_pr__pfet_01v8 ad=0p pd=0u as=0p ps=0u w=2.025e+07u l=150000u
X279 VDDIN Pdrive VSSOUT VSSOUT sky130_fd_pr__pfet_01v8 ad=0p pd=0u as=0p ps=0u w=2.025e+07u l=150000u
X280 VDDIN Pdrive VSSOUT VSSOUT sky130_fd_pr__pfet_01v8 ad=0p pd=0u as=0p ps=0u w=2.025e+07u l=150000u
X281 VDDIN Pdrive VSSOUT VSSOUT sky130_fd_pr__pfet_01v8 ad=0p pd=0u as=0p ps=0u w=2.025e+07u l=150000u
X282 VDDIN Pdrive VSSOUT VSSOUT sky130_fd_pr__pfet_01v8 ad=0p pd=0u as=0p ps=0u w=2.025e+07u l=150000u
X283 VDDIN Pdrive VSSOUT VSSOUT sky130_fd_pr__pfet_01v8 ad=0p pd=0u as=0p ps=0u w=2.025e+07u l=150000u
X284 VDDIN Pdrive VSSOUT VSSOUT sky130_fd_pr__pfet_01v8 ad=0p pd=0u as=0p ps=0u w=2.025e+07u l=150000u
X285 VDDIN Pdrive VSSOUT VSSOUT sky130_fd_pr__pfet_01v8 ad=0p pd=0u as=0p ps=0u w=2.025e+07u l=150000u
X286 VDDIN Pdrive VSSOUT VSSOUT sky130_fd_pr__pfet_01v8 ad=0p pd=0u as=0p ps=0u w=2.025e+07u l=150000u
X287 VDDIN Pdrive VSSOUT VSSOUT sky130_fd_pr__pfet_01v8 ad=0p pd=0u as=0p ps=0u w=2.025e+07u l=150000u
X288 VDDIN Pdrive VSSOUT VSSOUT sky130_fd_pr__pfet_01v8 ad=0p pd=0u as=0p ps=0u w=2.025e+07u l=150000u
X289 VDDIN Pdrive VSSOUT VSSOUT sky130_fd_pr__pfet_01v8 ad=0p pd=0u as=0p ps=0u w=2.025e+07u l=150000u
X290 VDDIN Pdrive VSSOUT VSSOUT sky130_fd_pr__pfet_01v8 ad=0p pd=0u as=0p ps=0u w=2.025e+07u l=150000u