* SPICE3 file created from basic_boost_1.ext - technology: sky130A

.subckt power_nmos_2 a_1290_520# a_890_n50#
X0 a_1290_520# a_1490_400# a_1520_520# a_890_n50# sky130_fd_pr__nfet_01v8 ad=1.6848e+16p pd=3.536e+10u as=1.6848e+16p ps=3.536e+10u w=2.025e+07u l=150000u
X1 a_1520_520# a_1490_400# a_1290_520# a_890_n50# sky130_fd_pr__nfet_01v8 ad=0p pd=0u as=0p ps=0u w=2.025e+07u l=150000u
X2 a_1520_520# a_1490_400# a_1290_520# a_890_n50# sky130_fd_pr__nfet_01v8 ad=0p pd=0u as=0p ps=0u w=2.025e+07u l=150000u
X3 a_1520_520# a_1490_400# a_1290_520# a_890_n50# sky130_fd_pr__nfet_01v8 ad=0p pd=0u as=0p ps=0u w=2.025e+07u l=150000u
X4 a_1520_520# a_1490_400# a_1290_520# a_890_n50# sky130_fd_pr__nfet_01v8 ad=0p pd=0u as=0p ps=0u w=2.025e+07u l=150000u
X5 a_1290_520# a_1490_400# a_1520_520# a_890_n50# sky130_fd_pr__nfet_01v8 ad=0p pd=0u as=0p ps=0u w=2.025e+07u l=150000u
X6 a_1520_520# a_1490_400# a_1290_520# a_890_n50# sky130_fd_pr__nfet_01v8 ad=0p pd=0u as=0p ps=0u w=2.025e+07u l=150000u
X7 a_1290_520# a_1490_400# a_1520_520# a_890_n50# sky130_fd_pr__nfet_01v8 ad=0p pd=0u as=0p ps=0u w=2.025e+07u l=150000u
X8 a_1290_520# a_1490_400# a_1520_520# a_890_n50# sky130_fd_pr__nfet_01v8 ad=0p pd=0u as=0p ps=0u w=2.025e+07u l=150000u
X9 a_1290_520# a_1490_400# a_1520_520# a_890_n50# sky130_fd_pr__nfet_01v8 ad=0p pd=0u as=0p ps=0u w=2.025e+07u l=150000u
X10 a_1520_520# a_1490_400# a_1290_520# a_890_n50# sky130_fd_pr__nfet_01v8 ad=0p pd=0u as=0p ps=0u w=2.025e+07u l=150000u
X11 a_1520_520# a_1490_400# a_1290_520# a_890_n50# sky130_fd_pr__nfet_01v8 ad=0p pd=0u as=0p ps=0u w=2.025e+07u l=150000u
X12 a_1520_520# a_1490_400# a_1290_520# a_890_n50# sky130_fd_pr__nfet_01v8 ad=0p pd=0u as=0p ps=0u w=2.025e+07u l=150000u
X13 a_1520_520# a_1490_400# a_1290_520# a_890_n50# sky130_fd_pr__nfet_01v8 ad=0p pd=0u as=0p ps=0u w=2.025e+07u l=150000u
X14 a_1520_520# a_1490_400# a_1290_520# a_890_n50# sky130_fd_pr__nfet_01v8 ad=0p pd=0u as=0p ps=0u w=2.025e+07u l=150000u
X15 a_1290_520# a_1490_400# a_1520_520# a_890_n50# sky130_fd_pr__nfet_01v8 ad=0p pd=0u as=0p ps=0u w=2.025e+07u l=150000u
X16 a_1290_520# a_1490_400# a_1520_520# a_890_n50# sky130_fd_pr__nfet_01v8 ad=0p pd=0u as=0p ps=0u w=2.025e+07u l=150000u
X17 a_1520_520# a_1490_400# a_1290_520# a_890_n50# sky130_fd_pr__nfet_01v8 ad=0p pd=0u as=0p ps=0u w=2.025e+07u l=150000u
X18 a_1290_520# a_1490_400# a_1520_520# a_890_n50# sky130_fd_pr__nfet_01v8 ad=0p pd=0u as=0p ps=0u w=2.025e+07u l=150000u
X19 a_1520_520# a_1490_400# a_1290_520# a_890_n50# sky130_fd_pr__nfet_01v8 ad=0p pd=0u as=0p ps=0u w=2.025e+07u l=150000u
X20 a_1520_520# a_1490_400# a_1290_520# a_890_n50# sky130_fd_pr__nfet_01v8 ad=0p pd=0u as=0p ps=0u w=2.025e+07u l=150000u
X21 a_1290_520# a_1490_400# a_1520_520# a_890_n50# sky130_fd_pr__nfet_01v8 ad=0p pd=0u as=0p ps=0u w=2.025e+07u l=150000u
X22 a_1290_520# a_1490_400# a_1520_520# a_890_n50# sky130_fd_pr__nfet_01v8 ad=0p pd=0u as=0p ps=0u w=2.025e+07u l=150000u
X23 a_1520_520# a_1490_400# a_1290_520# a_890_n50# sky130_fd_pr__nfet_01v8 ad=0p pd=0u as=0p ps=0u w=2.025e+07u l=150000u
X24 a_1520_520# a_1490_400# a_1290_520# a_890_n50# sky130_fd_pr__nfet_01v8 ad=0p pd=0u as=0p ps=0u w=2.025e+07u l=150000u
X25 a_1520_520# a_1490_400# a_1290_520# a_890_n50# sky130_fd_pr__nfet_01v8 ad=0p pd=0u as=0p ps=0u w=2.025e+07u l=150000u
X26 a_1520_520# a_1490_400# a_1290_520# a_890_n50# sky130_fd_pr__nfet_01v8 ad=0p pd=0u as=0p ps=0u w=2.025e+07u l=150000u
X27 a_1290_520# a_1490_400# a_1520_520# a_890_n50# sky130_fd_pr__nfet_01v8 ad=0p pd=0u as=0p ps=0u w=2.025e+07u l=150000u
X28 a_1290_520# a_1490_400# a_1520_520# a_890_n50# sky130_fd_pr__nfet_01v8 ad=0p pd=0u as=0p ps=0u w=2.025e+07u l=150000u
X29 a_1520_520# a_1490_400# a_1290_520# a_890_n50# sky130_fd_pr__nfet_01v8 ad=0p pd=0u as=0p ps=0u w=2.025e+07u l=150000u
X30 a_1290_520# a_1490_400# a_1520_520# a_890_n50# sky130_fd_pr__nfet_01v8 ad=0p pd=0u as=0p ps=0u w=2.025e+07u l=150000u
X31 a_1520_520# a_1490_400# a_1290_520# a_890_n50# sky130_fd_pr__nfet_01v8 ad=0p pd=0u as=0p ps=0u w=2.025e+07u l=150000u
X32 a_1520_520# a_1490_400# a_1290_520# a_890_n50# sky130_fd_pr__nfet_01v8 ad=0p pd=0u as=0p ps=0u w=2.025e+07u l=150000u
X33 a_1520_520# a_1490_400# a_1290_520# a_890_n50# sky130_fd_pr__nfet_01v8 ad=0p pd=0u as=0p ps=0u w=2.025e+07u l=150000u
X34 a_1520_520# a_1490_400# a_1290_520# a_890_n50# sky130_fd_pr__nfet_01v8 ad=0p pd=0u as=0p ps=0u w=2.025e+07u l=150000u
X35 a_1520_520# a_1490_400# a_1290_520# a_890_n50# sky130_fd_pr__nfet_01v8 ad=0p pd=0u as=0p ps=0u w=2.025e+07u l=150000u
X36 a_1520_520# a_1490_400# a_1290_520# a_890_n50# sky130_fd_pr__nfet_01v8 ad=0p pd=0u as=0p ps=0u w=2.025e+07u l=150000u
X37 a_1290_520# a_1490_400# a_1520_520# a_890_n50# sky130_fd_pr__nfet_01v8 ad=0p pd=0u as=0p ps=0u w=2.025e+07u l=150000u
X38 a_1520_520# a_1490_400# a_1290_520# a_890_n50# sky130_fd_pr__nfet_01v8 ad=0p pd=0u as=0p ps=0u w=2.025e+07u l=150000u
X39 a_1290_520# a_1490_400# a_1520_520# a_890_n50# sky130_fd_pr__nfet_01v8 ad=0p pd=0u as=0p ps=0u w=2.025e+07u l=150000u
X40 a_1520_520# a_1490_400# a_1290_520# a_890_n50# sky130_fd_pr__nfet_01v8 ad=0p pd=0u as=0p ps=0u w=2.025e+07u l=150000u
X41 a_1520_520# a_1490_400# a_1290_520# a_890_n50# sky130_fd_pr__nfet_01v8 ad=0p pd=0u as=0p ps=0u w=2.025e+07u l=150000u
X42 a_1520_520# a_1490_400# a_1290_520# a_890_n50# sky130_fd_pr__nfet_01v8 ad=0p pd=0u as=0p ps=0u w=2.025e+07u l=150000u
X43 a_1520_520# a_1490_400# a_1290_520# a_890_n50# sky130_fd_pr__nfet_01v8 ad=0p pd=0u as=0p ps=0u w=2.025e+07u l=150000u
X44 a_1290_520# a_1490_400# a_1520_520# a_890_n50# sky130_fd_pr__nfet_01v8 ad=0p pd=0u as=0p ps=0u w=2.025e+07u l=150000u
X45 a_1520_520# a_1490_400# a_1290_520# a_890_n50# sky130_fd_pr__nfet_01v8 ad=0p pd=0u as=0p ps=0u w=2.025e+07u l=150000u
X46 a_1290_520# a_1490_400# a_1520_520# a_890_n50# sky130_fd_pr__nfet_01v8 ad=0p pd=0u as=0p ps=0u w=2.025e+07u l=150000u
X47 a_1520_520# a_1490_400# a_1290_520# a_890_n50# sky130_fd_pr__nfet_01v8 ad=0p pd=0u as=0p ps=0u w=2.025e+07u l=150000u
X48 a_1290_520# a_1490_400# a_1520_520# a_890_n50# sky130_fd_pr__nfet_01v8 ad=0p pd=0u as=0p ps=0u w=2.025e+07u l=150000u
X49 a_1520_520# a_1490_400# a_1290_520# a_890_n50# sky130_fd_pr__nfet_01v8 ad=0p pd=0u as=0p ps=0u w=2.025e+07u l=150000u
X50 a_1520_520# a_1490_400# a_1290_520# a_890_n50# sky130_fd_pr__nfet_01v8 ad=0p pd=0u as=0p ps=0u w=2.025e+07u l=150000u
X51 a_1290_520# a_1490_400# a_1520_520# a_890_n50# sky130_fd_pr__nfet_01v8 ad=0p pd=0u as=0p ps=0u w=2.025e+07u l=150000u
X52 a_1520_520# a_1490_400# a_1290_520# a_890_n50# sky130_fd_pr__nfet_01v8 ad=0p pd=0u as=0p ps=0u w=2.025e+07u l=150000u
X53 a_1290_520# a_1490_400# a_1520_520# a_890_n50# sky130_fd_pr__nfet_01v8 ad=0p pd=0u as=0p ps=0u w=2.025e+07u l=150000u
X54 a_1290_520# a_1490_400# a_1520_520# a_890_n50# sky130_fd_pr__nfet_01v8 ad=0p pd=0u as=0p ps=0u w=2.025e+07u l=150000u
X55 a_1520_520# a_1490_400# a_1290_520# a_890_n50# sky130_fd_pr__nfet_01v8 ad=0p pd=0u as=0p ps=0u w=2.025e+07u l=150000u
X56 a_1290_520# a_1490_400# a_1520_520# a_890_n50# sky130_fd_pr__nfet_01v8 ad=0p pd=0u as=0p ps=0u w=2.025e+07u l=150000u
X57 a_1290_520# a_1490_400# a_1520_520# a_890_n50# sky130_fd_pr__nfet_01v8 ad=0p pd=0u as=0p ps=0u w=2.025e+07u l=150000u
X58 a_1520_520# a_1490_400# a_1290_520# a_890_n50# sky130_fd_pr__nfet_01v8 ad=0p pd=0u as=0p ps=0u w=2.025e+07u l=150000u
X59 a_1520_520# a_1490_400# a_1290_520# a_890_n50# sky130_fd_pr__nfet_01v8 ad=0p pd=0u as=0p ps=0u w=2.025e+07u l=150000u
X60 a_1290_520# a_1490_400# a_1520_520# a_890_n50# sky130_fd_pr__nfet_01v8 ad=0p pd=0u as=0p ps=0u w=2.025e+07u l=150000u
X61 a_1290_520# a_1490_400# a_1520_520# a_890_n50# sky130_fd_pr__nfet_01v8 ad=0p pd=0u as=0p ps=0u w=2.025e+07u l=150000u
X62 a_1290_520# a_1490_400# a_1520_520# a_890_n50# sky130_fd_pr__nfet_01v8 ad=0p pd=0u as=0p ps=0u w=2.025e+07u l=150000u
X63 a_1290_520# a_1490_400# a_1520_520# a_890_n50# sky130_fd_pr__nfet_01v8 ad=0p pd=0u as=0p ps=0u w=2.025e+07u l=150000u
X64 a_1520_520# a_1490_400# a_1290_520# a_890_n50# sky130_fd_pr__nfet_01v8 ad=0p pd=0u as=0p ps=0u w=2.025e+07u l=150000u
X65 a_1290_520# a_1490_400# a_1520_520# a_890_n50# sky130_fd_pr__nfet_01v8 ad=0p pd=0u as=0p ps=0u w=2.025e+07u l=150000u
X66 a_1520_520# a_1490_400# a_1290_520# a_890_n50# sky130_fd_pr__nfet_01v8 ad=0p pd=0u as=0p ps=0u w=2.025e+07u l=150000u
X67 a_1290_520# a_1490_400# a_1520_520# a_890_n50# sky130_fd_pr__nfet_01v8 ad=0p pd=0u as=0p ps=0u w=2.025e+07u l=150000u
X68 a_1520_520# a_1490_400# a_1290_520# a_890_n50# sky130_fd_pr__nfet_01v8 ad=0p pd=0u as=0p ps=0u w=2.025e+07u l=150000u
X69 a_1290_520# a_1490_400# a_1520_520# a_890_n50# sky130_fd_pr__nfet_01v8 ad=0p pd=0u as=0p ps=0u w=2.025e+07u l=150000u
X70 a_1290_520# a_1490_400# a_1520_520# a_890_n50# sky130_fd_pr__nfet_01v8 ad=0p pd=0u as=0p ps=0u w=2.025e+07u l=150000u
X71 a_1290_520# a_1490_400# a_1520_520# a_890_n50# sky130_fd_pr__nfet_01v8 ad=0p pd=0u as=0p ps=0u w=2.025e+07u l=150000u
X72 a_1520_520# a_1490_400# a_1290_520# a_890_n50# sky130_fd_pr__nfet_01v8 ad=0p pd=0u as=0p ps=0u w=2.025e+07u l=150000u
X73 a_1290_520# a_1490_400# a_1520_520# a_890_n50# sky130_fd_pr__nfet_01v8 ad=0p pd=0u as=0p ps=0u w=2.025e+07u l=150000u
X74 a_1290_520# a_1490_400# a_1520_520# a_890_n50# sky130_fd_pr__nfet_01v8 ad=0p pd=0u as=0p ps=0u w=2.025e+07u l=150000u
X75 a_1520_520# a_1490_400# a_1290_520# a_890_n50# sky130_fd_pr__nfet_01v8 ad=0p pd=0u as=0p ps=0u w=2.025e+07u l=150000u
X76 a_1290_520# a_1490_400# a_1520_520# a_890_n50# sky130_fd_pr__nfet_01v8 ad=0p pd=0u as=0p ps=0u w=2.025e+07u l=150000u
X77 a_1290_520# a_1490_400# a_1520_520# a_890_n50# sky130_fd_pr__nfet_01v8 ad=0p pd=0u as=0p ps=0u w=2.025e+07u l=150000u
X78 a_1520_520# a_1490_400# a_1290_520# a_890_n50# sky130_fd_pr__nfet_01v8 ad=0p pd=0u as=0p ps=0u w=2.025e+07u l=150000u
X79 a_1520_520# a_1490_400# a_1290_520# a_890_n50# sky130_fd_pr__nfet_01v8 ad=0p pd=0u as=0p ps=0u w=2.025e+07u l=150000u
X80 a_1520_520# a_1490_400# a_1290_520# a_890_n50# sky130_fd_pr__nfet_01v8 ad=0p pd=0u as=0p ps=0u w=2.025e+07u l=150000u
X81 a_1520_520# a_1490_400# a_1290_520# a_890_n50# sky130_fd_pr__nfet_01v8 ad=0p pd=0u as=0p ps=0u w=2.025e+07u l=150000u
X82 a_1290_520# a_1490_400# a_1520_520# a_890_n50# sky130_fd_pr__nfet_01v8 ad=0p pd=0u as=0p ps=0u w=2.025e+07u l=150000u
X83 a_1290_520# a_1490_400# a_1520_520# a_890_n50# sky130_fd_pr__nfet_01v8 ad=0p pd=0u as=0p ps=0u w=2.025e+07u l=150000u
X84 a_1520_520# a_1490_400# a_1290_520# a_890_n50# sky130_fd_pr__nfet_01v8 ad=0p pd=0u as=0p ps=0u w=2.025e+07u l=150000u
X85 a_1290_520# a_1490_400# a_1520_520# a_890_n50# sky130_fd_pr__nfet_01v8 ad=0p pd=0u as=0p ps=0u w=2.025e+07u l=150000u
X86 a_1520_520# a_1490_400# a_1290_520# a_890_n50# sky130_fd_pr__nfet_01v8 ad=0p pd=0u as=0p ps=0u w=2.025e+07u l=150000u
X87 a_1290_520# a_1490_400# a_1520_520# a_890_n50# sky130_fd_pr__nfet_01v8 ad=0p pd=0u as=0p ps=0u w=2.025e+07u l=150000u
X88 a_1290_520# a_1490_400# a_1520_520# a_890_n50# sky130_fd_pr__nfet_01v8 ad=0p pd=0u as=0p ps=0u w=2.025e+07u l=150000u
X89 a_1520_520# a_1490_400# a_1290_520# a_890_n50# sky130_fd_pr__nfet_01v8 ad=0p pd=0u as=0p ps=0u w=2.025e+07u l=150000u
X90 a_1290_520# a_1490_400# a_1520_520# a_890_n50# sky130_fd_pr__nfet_01v8 ad=0p pd=0u as=0p ps=0u w=2.025e+07u l=150000u
X91 a_1520_520# a_1490_400# a_1290_520# a_890_n50# sky130_fd_pr__nfet_01v8 ad=0p pd=0u as=0p ps=0u w=2.025e+07u l=150000u
X92 a_1290_520# a_1490_400# a_1520_520# a_890_n50# sky130_fd_pr__nfet_01v8 ad=0p pd=0u as=0p ps=0u w=2.025e+07u l=150000u
X93 a_1290_520# a_1490_400# a_1520_520# a_890_n50# sky130_fd_pr__nfet_01v8 ad=0p pd=0u as=0p ps=0u w=2.025e+07u l=150000u
X94 a_1520_520# a_1490_400# a_1290_520# a_890_n50# sky130_fd_pr__nfet_01v8 ad=0p pd=0u as=0p ps=0u w=2.025e+07u l=150000u
X95 a_1290_520# a_1490_400# a_1520_520# a_890_n50# sky130_fd_pr__nfet_01v8 ad=0p pd=0u as=0p ps=0u w=2.025e+07u l=150000u
X96 a_1290_520# a_1490_400# a_1520_520# a_890_n50# sky130_fd_pr__nfet_01v8 ad=0p pd=0u as=0p ps=0u w=2.025e+07u l=150000u
X97 a_1520_520# a_1490_400# a_1290_520# a_890_n50# sky130_fd_pr__nfet_01v8 ad=0p pd=0u as=0p ps=0u w=2.025e+07u l=150000u
X98 a_1520_520# a_1490_400# a_1290_520# a_890_n50# sky130_fd_pr__nfet_01v8 ad=0p pd=0u as=0p ps=0u w=2.025e+07u l=150000u
X99 a_1520_520# a_1490_400# a_1290_520# a_890_n50# sky130_fd_pr__nfet_01v8 ad=0p pd=0u as=0p ps=0u w=2.025e+07u l=150000u
X100 a_1520_520# a_1490_400# a_1290_520# a_890_n50# sky130_fd_pr__nfet_01v8 ad=0p pd=0u as=0p ps=0u w=2.025e+07u l=150000u
X101 a_1520_520# a_1490_400# a_1290_520# a_890_n50# sky130_fd_pr__nfet_01v8 ad=0p pd=0u as=0p ps=0u w=2.025e+07u l=150000u
X102 a_1290_520# a_1490_400# a_1520_520# a_890_n50# sky130_fd_pr__nfet_01v8 ad=0p pd=0u as=0p ps=0u w=2.025e+07u l=150000u
X103 a_1520_520# a_1490_400# a_1290_520# a_890_n50# sky130_fd_pr__nfet_01v8 ad=0p pd=0u as=0p ps=0u w=2.025e+07u l=150000u
X104 a_1520_520# a_1490_400# a_1290_520# a_890_n50# sky130_fd_pr__nfet_01v8 ad=0p pd=0u as=0p ps=0u w=2.025e+07u l=150000u
X105 a_1520_520# a_1490_400# a_1290_520# a_890_n50# sky130_fd_pr__nfet_01v8 ad=0p pd=0u as=0p ps=0u w=2.025e+07u l=150000u
X106 a_1520_520# a_1490_400# a_1290_520# a_890_n50# sky130_fd_pr__nfet_01v8 ad=0p pd=0u as=0p ps=0u w=2.025e+07u l=150000u
X107 a_1520_520# a_1490_400# a_1290_520# a_890_n50# sky130_fd_pr__nfet_01v8 ad=0p pd=0u as=0p ps=0u w=2.025e+07u l=150000u
X108 a_1520_520# a_1490_400# a_1290_520# a_890_n50# sky130_fd_pr__nfet_01v8 ad=0p pd=0u as=0p ps=0u w=2.025e+07u l=150000u
X109 a_1290_520# a_1490_400# a_1520_520# a_890_n50# sky130_fd_pr__nfet_01v8 ad=0p pd=0u as=0p ps=0u w=2.025e+07u l=150000u
X110 a_1520_520# a_1490_400# a_1290_520# a_890_n50# sky130_fd_pr__nfet_01v8 ad=0p pd=0u as=0p ps=0u w=2.025e+07u l=150000u
X111 a_1290_520# a_1490_400# a_1520_520# a_890_n50# sky130_fd_pr__nfet_01v8 ad=0p pd=0u as=0p ps=0u w=2.025e+07u l=150000u
X112 a_1290_520# a_1490_400# a_1520_520# a_890_n50# sky130_fd_pr__nfet_01v8 ad=0p pd=0u as=0p ps=0u w=2.025e+07u l=150000u
X113 a_1520_520# a_1490_400# a_1290_520# a_890_n50# sky130_fd_pr__nfet_01v8 ad=0p pd=0u as=0p ps=0u w=2.025e+07u l=150000u
X114 a_1520_520# a_1490_400# a_1290_520# a_890_n50# sky130_fd_pr__nfet_01v8 ad=0p pd=0u as=0p ps=0u w=2.025e+07u l=150000u
X115 a_1290_520# a_1490_400# a_1520_520# a_890_n50# sky130_fd_pr__nfet_01v8 ad=0p pd=0u as=0p ps=0u w=2.025e+07u l=150000u
X116 a_1520_520# a_1490_400# a_1290_520# a_890_n50# sky130_fd_pr__nfet_01v8 ad=0p pd=0u as=0p ps=0u w=2.025e+07u l=150000u
X117 a_1520_520# a_1490_400# a_1290_520# a_890_n50# sky130_fd_pr__nfet_01v8 ad=0p pd=0u as=0p ps=0u w=2.025e+07u l=150000u
X118 a_1520_520# a_1490_400# a_1290_520# a_890_n50# sky130_fd_pr__nfet_01v8 ad=0p pd=0u as=0p ps=0u w=2.025e+07u l=150000u
X119 a_1290_520# a_1490_400# a_1520_520# a_890_n50# sky130_fd_pr__nfet_01v8 ad=0p pd=0u as=0p ps=0u w=2.025e+07u l=150000u
X120 a_1290_520# a_1490_400# a_1520_520# a_890_n50# sky130_fd_pr__nfet_01v8 ad=0p pd=0u as=0p ps=0u w=2.025e+07u l=150000u
X121 a_1290_520# a_1490_400# a_1520_520# a_890_n50# sky130_fd_pr__nfet_01v8 ad=0p pd=0u as=0p ps=0u w=2.025e+07u l=150000u
X122 a_1520_520# a_1490_400# a_1290_520# a_890_n50# sky130_fd_pr__nfet_01v8 ad=0p pd=0u as=0p ps=0u w=2.025e+07u l=150000u
X123 a_1290_520# a_1490_400# a_1520_520# a_890_n50# sky130_fd_pr__nfet_01v8 ad=0p pd=0u as=0p ps=0u w=2.025e+07u l=150000u
X124 a_1520_520# a_1490_400# a_1290_520# a_890_n50# sky130_fd_pr__nfet_01v8 ad=0p pd=0u as=0p ps=0u w=2.025e+07u l=150000u
X125 a_1290_520# a_1490_400# a_1520_520# a_890_n50# sky130_fd_pr__nfet_01v8 ad=0p pd=0u as=0p ps=0u w=2.025e+07u l=150000u
X126 a_1520_520# a_1490_400# a_1290_520# a_890_n50# sky130_fd_pr__nfet_01v8 ad=0p pd=0u as=0p ps=0u w=2.025e+07u l=150000u
X127 a_1520_520# a_1490_400# a_1290_520# a_890_n50# sky130_fd_pr__nfet_01v8 ad=0p pd=0u as=0p ps=0u w=2.025e+07u l=150000u
X128 a_1520_520# a_1490_400# a_1290_520# a_890_n50# sky130_fd_pr__nfet_01v8 ad=0p pd=0u as=0p ps=0u w=2.025e+07u l=150000u
X129 a_1520_520# a_1490_400# a_1290_520# a_890_n50# sky130_fd_pr__nfet_01v8 ad=0p pd=0u as=0p ps=0u w=2.025e+07u l=150000u
X130 a_1520_520# a_1490_400# a_1290_520# a_890_n50# sky130_fd_pr__nfet_01v8 ad=0p pd=0u as=0p ps=0u w=2.025e+07u l=150000u
X131 a_1290_520# a_1490_400# a_1520_520# a_890_n50# sky130_fd_pr__nfet_01v8 ad=0p pd=0u as=0p ps=0u w=2.025e+07u l=150000u
X132 a_1520_520# a_1490_400# a_1290_520# a_890_n50# sky130_fd_pr__nfet_01v8 ad=0p pd=0u as=0p ps=0u w=2.025e+07u l=150000u
X133 a_1290_520# a_1490_400# a_1520_520# a_890_n50# sky130_fd_pr__nfet_01v8 ad=0p pd=0u as=0p ps=0u w=2.025e+07u l=150000u
X134 a_1290_520# a_1490_400# a_1520_520# a_890_n50# sky130_fd_pr__nfet_01v8 ad=0p pd=0u as=0p ps=0u w=2.025e+07u l=150000u
X135 a_1520_520# a_1490_400# a_1290_520# a_890_n50# sky130_fd_pr__nfet_01v8 ad=0p pd=0u as=0p ps=0u w=2.025e+07u l=150000u
X136 a_1290_520# a_1490_400# a_1520_520# a_890_n50# sky130_fd_pr__nfet_01v8 ad=0p pd=0u as=0p ps=0u w=2.025e+07u l=150000u
X137 a_1520_520# a_1490_400# a_1290_520# a_890_n50# sky130_fd_pr__nfet_01v8 ad=0p pd=0u as=0p ps=0u w=2.025e+07u l=150000u
X138 a_1290_520# a_1490_400# a_1520_520# a_890_n50# sky130_fd_pr__nfet_01v8 ad=0p pd=0u as=0p ps=0u w=2.025e+07u l=150000u
X139 a_1290_520# a_1490_400# a_1520_520# a_890_n50# sky130_fd_pr__nfet_01v8 ad=0p pd=0u as=0p ps=0u w=2.025e+07u l=150000u
X140 a_1520_520# a_1490_400# a_1290_520# a_890_n50# sky130_fd_pr__nfet_01v8 ad=0p pd=0u as=0p ps=0u w=2.025e+07u l=150000u
X141 a_1290_520# a_1490_400# a_1520_520# a_890_n50# sky130_fd_pr__nfet_01v8 ad=0p pd=0u as=0p ps=0u w=2.025e+07u l=150000u
X142 a_1290_520# a_1490_400# a_1520_520# a_890_n50# sky130_fd_pr__nfet_01v8 ad=0p pd=0u as=0p ps=0u w=2.025e+07u l=150000u
X143 a_1290_520# a_1490_400# a_1520_520# a_890_n50# sky130_fd_pr__nfet_01v8 ad=0p pd=0u as=0p ps=0u w=2.025e+07u l=150000u
X144 a_1290_520# a_1490_400# a_1520_520# a_890_n50# sky130_fd_pr__nfet_01v8 ad=0p pd=0u as=0p ps=0u w=2.025e+07u l=150000u
X145 a_1520_520# a_1490_400# a_1290_520# a_890_n50# sky130_fd_pr__nfet_01v8 ad=0p pd=0u as=0p ps=0u w=2.025e+07u l=150000u
X146 a_1520_520# a_1490_400# a_1290_520# a_890_n50# sky130_fd_pr__nfet_01v8 ad=0p pd=0u as=0p ps=0u w=2.025e+07u l=150000u
X147 a_1290_520# a_1490_400# a_1520_520# a_890_n50# sky130_fd_pr__nfet_01v8 ad=0p pd=0u as=0p ps=0u w=2.025e+07u l=150000u
X148 a_1290_520# a_1490_400# a_1520_520# a_890_n50# sky130_fd_pr__nfet_01v8 ad=0p pd=0u as=0p ps=0u w=2.025e+07u l=150000u
X149 a_1520_520# a_1490_400# a_1290_520# a_890_n50# sky130_fd_pr__nfet_01v8 ad=0p pd=0u as=0p ps=0u w=2.025e+07u l=150000u
X150 a_1520_520# a_1490_400# a_1290_520# a_890_n50# sky130_fd_pr__nfet_01v8 ad=0p pd=0u as=0p ps=0u w=2.025e+07u l=150000u
X151 a_1290_520# a_1490_400# a_1520_520# a_890_n50# sky130_fd_pr__nfet_01v8 ad=0p pd=0u as=0p ps=0u w=2.025e+07u l=150000u
X152 a_1290_520# a_1490_400# a_1520_520# a_890_n50# sky130_fd_pr__nfet_01v8 ad=0p pd=0u as=0p ps=0u w=2.025e+07u l=150000u
X153 a_1520_520# a_1490_400# a_1290_520# a_890_n50# sky130_fd_pr__nfet_01v8 ad=0p pd=0u as=0p ps=0u w=2.025e+07u l=150000u
X154 a_1290_520# a_1490_400# a_1520_520# a_890_n50# sky130_fd_pr__nfet_01v8 ad=0p pd=0u as=0p ps=0u w=2.025e+07u l=150000u
X155 a_1520_520# a_1490_400# a_1290_520# a_890_n50# sky130_fd_pr__nfet_01v8 ad=0p pd=0u as=0p ps=0u w=2.025e+07u l=150000u
X156 a_1290_520# a_1490_400# a_1520_520# a_890_n50# sky130_fd_pr__nfet_01v8 ad=0p pd=0u as=0p ps=0u w=2.025e+07u l=150000u
X157 a_1520_520# a_1490_400# a_1290_520# a_890_n50# sky130_fd_pr__nfet_01v8 ad=0p pd=0u as=0p ps=0u w=2.025e+07u l=150000u
X158 a_1520_520# a_1490_400# a_1290_520# a_890_n50# sky130_fd_pr__nfet_01v8 ad=0p pd=0u as=0p ps=0u w=2.025e+07u l=150000u
X159 a_1290_520# a_1490_400# a_1520_520# a_890_n50# sky130_fd_pr__nfet_01v8 ad=0p pd=0u as=0p ps=0u w=2.025e+07u l=150000u
X160 a_1290_520# a_1490_400# a_1520_520# a_890_n50# sky130_fd_pr__nfet_01v8 ad=0p pd=0u as=0p ps=0u w=2.025e+07u l=150000u
X161 a_1520_520# a_1490_400# a_1290_520# a_890_n50# sky130_fd_pr__nfet_01v8 ad=0p pd=0u as=0p ps=0u w=2.025e+07u l=150000u
X162 a_1290_520# a_1490_400# a_1520_520# a_890_n50# sky130_fd_pr__nfet_01v8 ad=0p pd=0u as=0p ps=0u w=2.025e+07u l=150000u
X163 a_1290_520# a_1490_400# a_1520_520# a_890_n50# sky130_fd_pr__nfet_01v8 ad=0p pd=0u as=0p ps=0u w=2.025e+07u l=150000u
X164 a_1290_520# a_1490_400# a_1520_520# a_890_n50# sky130_fd_pr__nfet_01v8 ad=0p pd=0u as=0p ps=0u w=2.025e+07u l=150000u
X165 a_1290_520# a_1490_400# a_1520_520# a_890_n50# sky130_fd_pr__nfet_01v8 ad=0p pd=0u as=0p ps=0u w=2.025e+07u l=150000u
X166 a_1290_520# a_1490_400# a_1520_520# a_890_n50# sky130_fd_pr__nfet_01v8 ad=0p pd=0u as=0p ps=0u w=2.025e+07u l=150000u
X167 a_1290_520# a_1490_400# a_1520_520# a_890_n50# sky130_fd_pr__nfet_01v8 ad=0p pd=0u as=0p ps=0u w=2.025e+07u l=150000u
X168 a_1520_520# a_1490_400# a_1290_520# a_890_n50# sky130_fd_pr__nfet_01v8 ad=0p pd=0u as=0p ps=0u w=2.025e+07u l=150000u
X169 a_1520_520# a_1490_400# a_1290_520# a_890_n50# sky130_fd_pr__nfet_01v8 ad=0p pd=0u as=0p ps=0u w=2.025e+07u l=150000u
X170 a_1520_520# a_1490_400# a_1290_520# a_890_n50# sky130_fd_pr__nfet_01v8 ad=0p pd=0u as=0p ps=0u w=2.025e+07u l=150000u
X171 a_1520_520# a_1490_400# a_1290_520# a_890_n50# sky130_fd_pr__nfet_01v8 ad=0p pd=0u as=0p ps=0u w=2.025e+07u l=150000u
X172 a_1290_520# a_1490_400# a_1520_520# a_890_n50# sky130_fd_pr__nfet_01v8 ad=0p pd=0u as=0p ps=0u w=2.025e+07u l=150000u
X173 a_1290_520# a_1490_400# a_1520_520# a_890_n50# sky130_fd_pr__nfet_01v8 ad=0p pd=0u as=0p ps=0u w=2.025e+07u l=150000u
X174 a_1520_520# a_1490_400# a_1290_520# a_890_n50# sky130_fd_pr__nfet_01v8 ad=0p pd=0u as=0p ps=0u w=2.025e+07u l=150000u
X175 a_1290_520# a_1490_400# a_1520_520# a_890_n50# sky130_fd_pr__nfet_01v8 ad=0p pd=0u as=0p ps=0u w=2.025e+07u l=150000u
X176 a_1290_520# a_1490_400# a_1520_520# a_890_n50# sky130_fd_pr__nfet_01v8 ad=0p pd=0u as=0p ps=0u w=2.025e+07u l=150000u
X177 a_1520_520# a_1490_400# a_1290_520# a_890_n50# sky130_fd_pr__nfet_01v8 ad=0p pd=0u as=0p ps=0u w=2.025e+07u l=150000u
X178 a_1520_520# a_1490_400# a_1290_520# a_890_n50# sky130_fd_pr__nfet_01v8 ad=0p pd=0u as=0p ps=0u w=2.025e+07u l=150000u
X179 a_1520_520# a_1490_400# a_1290_520# a_890_n50# sky130_fd_pr__nfet_01v8 ad=0p pd=0u as=0p ps=0u w=2.025e+07u l=150000u
X180 a_1290_520# a_1490_400# a_1520_520# a_890_n50# sky130_fd_pr__nfet_01v8 ad=0p pd=0u as=0p ps=0u w=2.025e+07u l=150000u
X181 a_1520_520# a_1490_400# a_1290_520# a_890_n50# sky130_fd_pr__nfet_01v8 ad=0p pd=0u as=0p ps=0u w=2.025e+07u l=150000u
X182 a_1520_520# a_1490_400# a_1290_520# a_890_n50# sky130_fd_pr__nfet_01v8 ad=0p pd=0u as=0p ps=0u w=2.025e+07u l=150000u
X183 a_1520_520# a_1490_400# a_1290_520# a_890_n50# sky130_fd_pr__nfet_01v8 ad=0p pd=0u as=0p ps=0u w=2.025e+07u l=150000u
X184 a_1290_520# a_1490_400# a_1520_520# a_890_n50# sky130_fd_pr__nfet_01v8 ad=0p pd=0u as=0p ps=0u w=2.025e+07u l=150000u
X185 a_1520_520# a_1490_400# a_1290_520# a_890_n50# sky130_fd_pr__nfet_01v8 ad=0p pd=0u as=0p ps=0u w=2.025e+07u l=150000u
X186 a_1290_520# a_1490_400# a_1520_520# a_890_n50# sky130_fd_pr__nfet_01v8 ad=0p pd=0u as=0p ps=0u w=2.025e+07u l=150000u
X187 a_1520_520# a_1490_400# a_1290_520# a_890_n50# sky130_fd_pr__nfet_01v8 ad=0p pd=0u as=0p ps=0u w=2.025e+07u l=150000u
X188 a_1520_520# a_1490_400# a_1290_520# a_890_n50# sky130_fd_pr__nfet_01v8 ad=0p pd=0u as=0p ps=0u w=2.025e+07u l=150000u
X189 a_1520_520# a_1490_400# a_1290_520# a_890_n50# sky130_fd_pr__nfet_01v8 ad=0p pd=0u as=0p ps=0u w=2.025e+07u l=150000u
X190 a_1290_520# a_1490_400# a_1520_520# a_890_n50# sky130_fd_pr__nfet_01v8 ad=0p pd=0u as=0p ps=0u w=2.025e+07u l=150000u
X191 a_1290_520# a_1490_400# a_1520_520# a_890_n50# sky130_fd_pr__nfet_01v8 ad=0p pd=0u as=0p ps=0u w=2.025e+07u l=150000u
X192 a_1520_520# a_1490_400# a_1290_520# a_890_n50# sky130_fd_pr__nfet_01v8 ad=0p pd=0u as=0p ps=0u w=2.025e+07u l=150000u
X193 a_1290_520# a_1490_400# a_1520_520# a_890_n50# sky130_fd_pr__nfet_01v8 ad=0p pd=0u as=0p ps=0u w=2.025e+07u l=150000u
X194 a_1520_520# a_1490_400# a_1290_520# a_890_n50# sky130_fd_pr__nfet_01v8 ad=0p pd=0u as=0p ps=0u w=2.025e+07u l=150000u
X195 a_1290_520# a_1490_400# a_1520_520# a_890_n50# sky130_fd_pr__nfet_01v8 ad=0p pd=0u as=0p ps=0u w=2.025e+07u l=150000u
X196 a_1290_520# a_1490_400# a_1520_520# a_890_n50# sky130_fd_pr__nfet_01v8 ad=0p pd=0u as=0p ps=0u w=2.025e+07u l=150000u
X197 a_1520_520# a_1490_400# a_1290_520# a_890_n50# sky130_fd_pr__nfet_01v8 ad=0p pd=0u as=0p ps=0u w=2.025e+07u l=150000u
X198 a_1520_520# a_1490_400# a_1290_520# a_890_n50# sky130_fd_pr__nfet_01v8 ad=0p pd=0u as=0p ps=0u w=2.025e+07u l=150000u
X199 a_1520_520# a_1490_400# a_1290_520# a_890_n50# sky130_fd_pr__nfet_01v8 ad=0p pd=0u as=0p ps=0u w=2.025e+07u l=150000u
X200 a_1290_520# a_1490_400# a_1520_520# a_890_n50# sky130_fd_pr__nfet_01v8 ad=0p pd=0u as=0p ps=0u w=2.025e+07u l=150000u
X201 a_1290_520# a_1490_400# a_1520_520# a_890_n50# sky130_fd_pr__nfet_01v8 ad=0p pd=0u as=0p ps=0u w=2.025e+07u l=150000u
X202 a_1520_520# a_1490_400# a_1290_520# a_890_n50# sky130_fd_pr__nfet_01v8 ad=0p pd=0u as=0p ps=0u w=2.025e+07u l=150000u
X203 a_1520_520# a_1490_400# a_1290_520# a_890_n50# sky130_fd_pr__nfet_01v8 ad=0p pd=0u as=0p ps=0u w=2.025e+07u l=150000u
X204 a_1520_520# a_1490_400# a_1290_520# a_890_n50# sky130_fd_pr__nfet_01v8 ad=0p pd=0u as=0p ps=0u w=2.025e+07u l=150000u
X205 a_1520_520# a_1490_400# a_1290_520# a_890_n50# sky130_fd_pr__nfet_01v8 ad=0p pd=0u as=0p ps=0u w=2.025e+07u l=150000u
X206 a_1520_520# a_1490_400# a_1290_520# a_890_n50# sky130_fd_pr__nfet_01v8 ad=0p pd=0u as=0p ps=0u w=2.025e+07u l=150000u
X207 a_1290_520# a_1490_400# a_1520_520# a_890_n50# sky130_fd_pr__nfet_01v8 ad=0p pd=0u as=0p ps=0u w=2.025e+07u l=150000u
X208 a_1290_520# a_1490_400# a_1520_520# a_890_n50# sky130_fd_pr__nfet_01v8 ad=0p pd=0u as=0p ps=0u w=2.025e+07u l=150000u
X209 a_1520_520# a_1490_400# a_1290_520# a_890_n50# sky130_fd_pr__nfet_01v8 ad=0p pd=0u as=0p ps=0u w=2.025e+07u l=150000u
X210 a_1520_520# a_1490_400# a_1290_520# a_890_n50# sky130_fd_pr__nfet_01v8 ad=0p pd=0u as=0p ps=0u w=2.025e+07u l=150000u
X211 a_1520_520# a_1490_400# a_1290_520# a_890_n50# sky130_fd_pr__nfet_01v8 ad=0p pd=0u as=0p ps=0u w=2.025e+07u l=150000u
X212 a_1520_520# a_1490_400# a_1290_520# a_890_n50# sky130_fd_pr__nfet_01v8 ad=0p pd=0u as=0p ps=0u w=2.025e+07u l=150000u
X213 a_1520_520# a_1490_400# a_1290_520# a_890_n50# sky130_fd_pr__nfet_01v8 ad=0p pd=0u as=0p ps=0u w=2.025e+07u l=150000u
X214 a_1290_520# a_1490_400# a_1520_520# a_890_n50# sky130_fd_pr__nfet_01v8 ad=0p pd=0u as=0p ps=0u w=2.025e+07u l=150000u
X215 a_1520_520# a_1490_400# a_1290_520# a_890_n50# sky130_fd_pr__nfet_01v8 ad=0p pd=0u as=0p ps=0u w=2.025e+07u l=150000u
X216 a_1290_520# a_1490_400# a_1520_520# a_890_n50# sky130_fd_pr__nfet_01v8 ad=0p pd=0u as=0p ps=0u w=2.025e+07u l=150000u
X217 a_1290_520# a_1490_400# a_1520_520# a_890_n50# sky130_fd_pr__nfet_01v8 ad=0p pd=0u as=0p ps=0u w=2.025e+07u l=150000u
X218 a_1290_520# a_1490_400# a_1520_520# a_890_n50# sky130_fd_pr__nfet_01v8 ad=0p pd=0u as=0p ps=0u w=2.025e+07u l=150000u
X219 a_1290_520# a_1490_400# a_1520_520# a_890_n50# sky130_fd_pr__nfet_01v8 ad=0p pd=0u as=0p ps=0u w=2.025e+07u l=150000u
X220 a_1290_520# a_1490_400# a_1520_520# a_890_n50# sky130_fd_pr__nfet_01v8 ad=0p pd=0u as=0p ps=0u w=2.025e+07u l=150000u
X221 a_1520_520# a_1490_400# a_1290_520# a_890_n50# sky130_fd_pr__nfet_01v8 ad=0p pd=0u as=0p ps=0u w=2.025e+07u l=150000u
X222 a_1520_520# a_1490_400# a_1290_520# a_890_n50# sky130_fd_pr__nfet_01v8 ad=0p pd=0u as=0p ps=0u w=2.025e+07u l=150000u
X223 a_1520_520# a_1490_400# a_1290_520# a_890_n50# sky130_fd_pr__nfet_01v8 ad=0p pd=0u as=0p ps=0u w=2.025e+07u l=150000u
X224 a_1290_520# a_1490_400# a_1520_520# a_890_n50# sky130_fd_pr__nfet_01v8 ad=0p pd=0u as=0p ps=0u w=2.025e+07u l=150000u
X225 a_1520_520# a_1490_400# a_1290_520# a_890_n50# sky130_fd_pr__nfet_01v8 ad=0p pd=0u as=0p ps=0u w=2.025e+07u l=150000u
X226 a_1520_520# a_1490_400# a_1290_520# a_890_n50# sky130_fd_pr__nfet_01v8 ad=0p pd=0u as=0p ps=0u w=2.025e+07u l=150000u
X227 a_1290_520# a_1490_400# a_1520_520# a_890_n50# sky130_fd_pr__nfet_01v8 ad=0p pd=0u as=0p ps=0u w=2.025e+07u l=150000u
X228 a_1520_520# a_1490_400# a_1290_520# a_890_n50# sky130_fd_pr__nfet_01v8 ad=0p pd=0u as=0p ps=0u w=2.025e+07u l=150000u
X229 a_1290_520# a_1490_400# a_1520_520# a_890_n50# sky130_fd_pr__nfet_01v8 ad=0p pd=0u as=0p ps=0u w=2.025e+07u l=150000u
X230 a_1290_520# a_1490_400# a_1520_520# a_890_n50# sky130_fd_pr__nfet_01v8 ad=0p pd=0u as=0p ps=0u w=2.025e+07u l=150000u
X231 a_1520_520# a_1490_400# a_1290_520# a_890_n50# sky130_fd_pr__nfet_01v8 ad=0p pd=0u as=0p ps=0u w=2.025e+07u l=150000u
X232 a_1520_520# a_1490_400# a_1290_520# a_890_n50# sky130_fd_pr__nfet_01v8 ad=0p pd=0u as=0p ps=0u w=2.025e+07u l=150000u
X233 a_1520_520# a_1490_400# a_1290_520# a_890_n50# sky130_fd_pr__nfet_01v8 ad=0p pd=0u as=0p ps=0u w=2.025e+07u l=150000u
X234 a_1520_520# a_1490_400# a_1290_520# a_890_n50# sky130_fd_pr__nfet_01v8 ad=0p pd=0u as=0p ps=0u w=2.025e+07u l=150000u
X235 a_1290_520# a_1490_400# a_1520_520# a_890_n50# sky130_fd_pr__nfet_01v8 ad=0p pd=0u as=0p ps=0u w=2.025e+07u l=150000u
X236 a_1290_520# a_1490_400# a_1520_520# a_890_n50# sky130_fd_pr__nfet_01v8 ad=0p pd=0u as=0p ps=0u w=2.025e+07u l=150000u
X237 a_1290_520# a_1490_400# a_1520_520# a_890_n50# sky130_fd_pr__nfet_01v8 ad=0p pd=0u as=0p ps=0u w=2.025e+07u l=150000u
X238 a_1520_520# a_1490_400# a_1290_520# a_890_n50# sky130_fd_pr__nfet_01v8 ad=0p pd=0u as=0p ps=0u w=2.025e+07u l=150000u
X239 a_1520_520# a_1490_400# a_1290_520# a_890_n50# sky130_fd_pr__nfet_01v8 ad=0p pd=0u as=0p ps=0u w=2.025e+07u l=150000u
X240 a_1290_520# a_1490_400# a_1520_520# a_890_n50# sky130_fd_pr__nfet_01v8 ad=0p pd=0u as=0p ps=0u w=2.025e+07u l=150000u
X241 a_1290_520# a_1490_400# a_1520_520# a_890_n50# sky130_fd_pr__nfet_01v8 ad=0p pd=0u as=0p ps=0u w=2.025e+07u l=150000u
X242 a_1290_520# a_1490_400# a_1520_520# a_890_n50# sky130_fd_pr__nfet_01v8 ad=0p pd=0u as=0p ps=0u w=2.025e+07u l=150000u