** sch_path: /Users/nikhim/ocd/Basic_Boost_Converter/Spice_Files/Basic_Boost.sch
**.subckt Basic_Boost
C1 ?1 Vout ?1 GND  4.375u m=1
**** end_element
R1 ?1 Vout ?1 GND  6 m=1
**** end_element
L1 ?1 Vin ?1 net1  3.125u m=1
**** end_element
V1 ?1 Vin ?1 GND  pwl 0 1 0.25ms 1 0.251ms 1.2 0.500ms 1.2 0.501ms 1.4
**** end_element
V2 ?1 Ndrive ?1 GND  PULSE (0 1 0 0.01us 0.01us 0.85us 1.25us)
**** end_element
V3 ?1 Pdrive ?1 GND  PULSE (0 1 0 0.01us 0.01us 0.85us 1.25us)
**** end_element
X1 ?1 Ndrive ?1 net1 ?1 GND  powern
**** end_element
X2 ?1 Pdrive ?1 net1 ?1 Vout  powerp
**** end_element
**** begin user architecture code
** manual skywater pdks install (with patches applied)
* .lib /usr/local/share/pdk/sky130A/libs.tech/ngspice/models/sky130.lib.spice tt_mm

** opencircuitdesign pdks install
.lib /usr/local/share/pdk/sky130A/libs.tech/ngspice/sky130.lib.spice tt_mm

 


.tran 0.1ms 1ms
.save all
.option savecurrents

**** end user architecture code
**.ends

* expanding   symbol:  powern.sym # of pins=3
** sym_path: /Users/nikhim/ocd/Basic_Boost_Converter/Spice_Files/powern.sym
** sch_path: /Users/nikhim/ocd/Basic_Boost_Converter/Spice_Files/powern.sch
.subckt powern  NDRIVE VDDIN VSSOUT  
*.ipin NDRIVE
*.iopin VDDIN
*.iopin VSSOUT
**** spice_prefix X
M1 ?1 VDDIN ?1 NDRIVE ?1 VSSOUT ?1 VSSOUT  sky130_fd_pr__nfet_01v8 L=0.15 W=80
+ nf=1 ad='int((nf+1)/2) * W/nf * 0.29' as='int((nf+2)/2) * W/nf * 0.29' pd='2*int((nf+1)/2) * (W/nf + 0.29)' ps='2*int((nf+2)/2) * (W/nf + 0.29)'
+ nrd='0.29 / W' nrs='0.29 / W' sa=0 sb=0 sd=0 
+ mult=1 m=1
**** end_element
**** spice_prefix X
M2 ?1 VDDIN ?1 NDRIVE ?1 VSSOUT ?1 VSSOUT  sky130_fd_pr__nfet_01v8 L=0.15 W=80
+ nf=1 ad='int((nf+1)/2) * W/nf * 0.29' as='int((nf+2)/2) * W/nf * 0.29' pd='2*int((nf+1)/2) * (W/nf + 0.29)' ps='2*int((nf+2)/2) * (W/nf + 0.29)'
+ nrd='0.29 / W' nrs='0.29 / W' sa=0 sb=0 sd=0 
+ mult=1 m=1
**** end_element
**** spice_prefix X
M3 ?1 VDDIN ?1 NDRIVE ?1 VSSOUT ?1 VSSOUT  sky130_fd_pr__nfet_01v8 L=0.15 W=80
+ nf=1 ad='int((nf+1)/2) * W/nf * 0.29' as='int((nf+2)/2) * W/nf * 0.29' pd='2*int((nf+1)/2) * (W/nf + 0.29)' ps='2*int((nf+2)/2) * (W/nf + 0.29)'
+ nrd='0.29 / W' nrs='0.29 / W' sa=0 sb=0 sd=0 
+ mult=1 m=1
**** end_element
**** spice_prefix X
M4 ?1 VDDIN ?1 NDRIVE ?1 VSSOUT ?1 VSSOUT  sky130_fd_pr__nfet_01v8 L=0.15 W=80
+ nf=1 ad='int((nf+1)/2) * W/nf * 0.29' as='int((nf+2)/2) * W/nf * 0.29' pd='2*int((nf+1)/2) * (W/nf + 0.29)' ps='2*int((nf+2)/2) * (W/nf + 0.29)'
+ nrd='0.29 / W' nrs='0.29 / W' sa=0 sb=0 sd=0 
+ mult=1 m=1
**** end_element
**** spice_prefix X
M5 ?1 VDDIN ?1 NDRIVE ?1 VSSOUT ?1 VSSOUT  sky130_fd_pr__nfet_01v8 L=0.15 W=80
+ nf=1 ad='int((nf+1)/2) * W/nf * 0.29' as='int((nf+2)/2) * W/nf * 0.29' pd='2*int((nf+1)/2) * (W/nf + 0.29)' ps='2*int((nf+2)/2) * (W/nf + 0.29)'
+ nrd='0.29 / W' nrs='0.29 / W' sa=0 sb=0 sd=0 
+ mult=1 m=1
**** end_element
**** spice_prefix X
M6 ?1 VDDIN ?1 NDRIVE ?1 VSSOUT ?1 VSSOUT  sky130_fd_pr__nfet_01v8 L=0.15 W=80
+ nf=1 ad='int((nf+1)/2) * W/nf * 0.29' as='int((nf+2)/2) * W/nf * 0.29' pd='2*int((nf+1)/2) * (W/nf + 0.29)' ps='2*int((nf+2)/2) * (W/nf + 0.29)'
+ nrd='0.29 / W' nrs='0.29 / W' sa=0 sb=0 sd=0 
+ mult=1 m=1
**** end_element
**** spice_prefix X
M7 ?1 VDDIN ?1 NDRIVE ?1 VSSOUT ?1 VSSOUT  sky130_fd_pr__nfet_01v8 L=0.15 W=80
+ nf=1 ad='int((nf+1)/2) * W/nf * 0.29' as='int((nf+2)/2) * W/nf * 0.29' pd='2*int((nf+1)/2) * (W/nf + 0.29)' ps='2*int((nf+2)/2) * (W/nf + 0.29)'
+ nrd='0.29 / W' nrs='0.29 / W' sa=0 sb=0 sd=0 
+ mult=1 m=1
**** end_element
**** spice_prefix X
M8 ?1 VDDIN ?1 NDRIVE ?1 VSSOUT ?1 VSSOUT  sky130_fd_pr__nfet_01v8 L=0.15 W=80
+ nf=1 ad='int((nf+1)/2) * W/nf * 0.29' as='int((nf+2)/2) * W/nf * 0.29' pd='2*int((nf+1)/2) * (W/nf + 0.29)' ps='2*int((nf+2)/2) * (W/nf + 0.29)'
+ nrd='0.29 / W' nrs='0.29 / W' sa=0 sb=0 sd=0 
+ mult=1 m=1
**** end_element
**** spice_prefix X
M9 ?1 VDDIN ?1 NDRIVE ?1 VSSOUT ?1 VSSOUT  sky130_fd_pr__nfet_01v8 L=0.15 W=80
+ nf=1 ad='int((nf+1)/2) * W/nf * 0.29' as='int((nf+2)/2) * W/nf * 0.29' pd='2*int((nf+1)/2) * (W/nf + 0.29)' ps='2*int((nf+2)/2) * (W/nf + 0.29)'
+ nrd='0.29 / W' nrs='0.29 / W' sa=0 sb=0 sd=0 
+ mult=1 m=1
**** end_element
**** spice_prefix X
M10 ?1 VDDIN ?1 NDRIVE ?1 VSSOUT ?1 VSSOUT  sky130_fd_pr__nfet_01v8 L=0.15 W=80
+ nf=1 ad='int((nf+1)/2) * W/nf * 0.29' as='int((nf+2)/2) * W/nf * 0.29' pd='2*int((nf+1)/2) * (W/nf + 0.29)' ps='2*int((nf+2)/2) * (W/nf + 0.29)'
+ nrd='0.29 / W' nrs='0.29 / W' sa=0 sb=0 sd=0 
+ mult=1 m=1
**** end_element
**** spice_prefix X
M11 ?1 VDDIN ?1 NDRIVE ?1 VSSOUT ?1 VSSOUT  sky130_fd_pr__nfet_01v8 L=0.15 W=80
+ nf=1 ad='int((nf+1)/2) * W/nf * 0.29' as='int((nf+2)/2) * W/nf * 0.29' pd='2*int((nf+1)/2) * (W/nf + 0.29)' ps='2*int((nf+2)/2) * (W/nf + 0.29)'
+ nrd='0.29 / W' nrs='0.29 / W' sa=0 sb=0 sd=0 
+ mult=1 m=1
**** end_element
**** spice_prefix X
M12 ?1 VDDIN ?1 NDRIVE ?1 VSSOUT ?1 VSSOUT  sky130_fd_pr__nfet_01v8 L=0.15 W=80
+ nf=1 ad='int((nf+1)/2) * W/nf * 0.29' as='int((nf+2)/2) * W/nf * 0.29' pd='2*int((nf+1)/2) * (W/nf + 0.29)' ps='2*int((nf+2)/2) * (W/nf + 0.29)'
+ nrd='0.29 / W' nrs='0.29 / W' sa=0 sb=0 sd=0 
+ mult=1 m=1
**** end_element
**** spice_prefix X
M13 ?1 VDDIN ?1 NDRIVE ?1 VSSOUT ?1 VSSOUT  sky130_fd_pr__nfet_01v8 L=0.15 W=80
+ nf=1 ad='int((nf+1)/2) * W/nf * 0.29' as='int((nf+2)/2) * W/nf * 0.29' pd='2*int((nf+1)/2) * (W/nf + 0.29)' ps='2*int((nf+2)/2) * (W/nf + 0.29)'
+ nrd='0.29 / W' nrs='0.29 / W' sa=0 sb=0 sd=0 
+ mult=1 m=1
**** end_element
**** spice_prefix X
M14 ?1 VDDIN ?1 NDRIVE ?1 VSSOUT ?1 VSSOUT  sky130_fd_pr__nfet_01v8 L=0.15 W=80
+ nf=1 ad='int((nf+1)/2) * W/nf * 0.29' as='int((nf+2)/2) * W/nf * 0.29' pd='2*int((nf+1)/2) * (W/nf + 0.29)' ps='2*int((nf+2)/2) * (W/nf + 0.29)'
+ nrd='0.29 / W' nrs='0.29 / W' sa=0 sb=0 sd=0 
+ mult=1 m=1
**** end_element
**** spice_prefix X
M15 ?1 VDDIN ?1 NDRIVE ?1 VSSOUT ?1 VSSOUT  sky130_fd_pr__nfet_01v8 L=0.15 W=80
+ nf=1 ad='int((nf+1)/2) * W/nf * 0.29' as='int((nf+2)/2) * W/nf * 0.29' pd='2*int((nf+1)/2) * (W/nf + 0.29)' ps='2*int((nf+2)/2) * (W/nf + 0.29)'
+ nrd='0.29 / W' nrs='0.29 / W' sa=0 sb=0 sd=0 
+ mult=1 m=1
**** end_element
**** spice_prefix X
M16 ?1 VDDIN ?1 NDRIVE ?1 VSSOUT ?1 VSSOUT  sky130_fd_pr__nfet_01v8 L=0.15 W=80
+ nf=1 ad='int((nf+1)/2) * W/nf * 0.29' as='int((nf+2)/2) * W/nf * 0.29' pd='2*int((nf+1)/2) * (W/nf + 0.29)' ps='2*int((nf+2)/2) * (W/nf + 0.29)'
+ nrd='0.29 / W' nrs='0.29 / W' sa=0 sb=0 sd=0 
+ mult=1 m=1
**** end_element
**** spice_prefix X
M17 ?1 VDDIN ?1 NDRIVE ?1 VSSOUT ?1 VSSOUT  sky130_fd_pr__nfet_01v8 L=0.15 W=80
+ nf=1 ad='int((nf+1)/2) * W/nf * 0.29' as='int((nf+2)/2) * W/nf * 0.29' pd='2*int((nf+1)/2) * (W/nf + 0.29)' ps='2*int((nf+2)/2) * (W/nf + 0.29)'
+ nrd='0.29 / W' nrs='0.29 / W' sa=0 sb=0 sd=0 
+ mult=1 m=1
**** end_element
**** spice_prefix X
M18 ?1 VDDIN ?1 NDRIVE ?1 VSSOUT ?1 VSSOUT  sky130_fd_pr__nfet_01v8 L=0.15 W=80
+ nf=1 ad='int((nf+1)/2) * W/nf * 0.29' as='int((nf+2)/2) * W/nf * 0.29' pd='2*int((nf+1)/2) * (W/nf + 0.29)' ps='2*int((nf+2)/2) * (W/nf + 0.29)'
+ nrd='0.29 / W' nrs='0.29 / W' sa=0 sb=0 sd=0 
+ mult=1 m=1
**** end_element
**** spice_prefix X
M19 ?1 VDDIN ?1 NDRIVE ?1 VSSOUT ?1 VSSOUT  sky130_fd_pr__nfet_01v8 L=0.15 W=80
+ nf=1 ad='int((nf+1)/2) * W/nf * 0.29' as='int((nf+2)/2) * W/nf * 0.29' pd='2*int((nf+1)/2) * (W/nf + 0.29)' ps='2*int((nf+2)/2) * (W/nf + 0.29)'
+ nrd='0.29 / W' nrs='0.29 / W' sa=0 sb=0 sd=0 
+ mult=1 m=1
**** end_element
**** spice_prefix X
M20 ?1 VDDIN ?1 NDRIVE ?1 VSSOUT ?1 VSSOUT  sky130_fd_pr__nfet_01v8 L=0.15 W=80
+ nf=1 ad='int((nf+1)/2) * W/nf * 0.29' as='int((nf+2)/2) * W/nf * 0.29' pd='2*int((nf+1)/2) * (W/nf + 0.29)' ps='2*int((nf+2)/2) * (W/nf + 0.29)'
+ nrd='0.29 / W' nrs='0.29 / W' sa=0 sb=0 sd=0 
+ mult=1 m=1
**** end_element
**** spice_prefix X
M21 ?1 VDDIN ?1 NDRIVE ?1 VSSOUT ?1 VSSOUT  sky130_fd_pr__nfet_01v8 L=0.15 W=80
+ nf=1 ad='int((nf+1)/2) * W/nf * 0.29' as='int((nf+2)/2) * W/nf * 0.29' pd='2*int((nf+1)/2) * (W/nf + 0.29)' ps='2*int((nf+2)/2) * (W/nf + 0.29)'
+ nrd='0.29 / W' nrs='0.29 / W' sa=0 sb=0 sd=0 
+ mult=1 m=1
**** end_element
**** spice_prefix X
M22 ?1 VDDIN ?1 NDRIVE ?1 VSSOUT ?1 VSSOUT  sky130_fd_pr__nfet_01v8 L=0.15 W=80
+ nf=1 ad='int((nf+1)/2) * W/nf * 0.29' as='int((nf+2)/2) * W/nf * 0.29' pd='2*int((nf+1)/2) * (W/nf + 0.29)' ps='2*int((nf+2)/2) * (W/nf + 0.29)'
+ nrd='0.29 / W' nrs='0.29 / W' sa=0 sb=0 sd=0 
+ mult=1 m=1
**** end_element
**** spice_prefix X
M23 ?1 VDDIN ?1 NDRIVE ?1 VSSOUT ?1 VSSOUT  sky130_fd_pr__nfet_01v8 L=0.15 W=80
+ nf=1 ad='int((nf+1)/2) * W/nf * 0.29' as='int((nf+2)/2) * W/nf * 0.29' pd='2*int((nf+1)/2) * (W/nf + 0.29)' ps='2*int((nf+2)/2) * (W/nf + 0.29)'
+ nrd='0.29 / W' nrs='0.29 / W' sa=0 sb=0 sd=0 
+ mult=1 m=1
**** end_element
**** spice_prefix X
M24 ?1 VDDIN ?1 NDRIVE ?1 VSSOUT ?1 VSSOUT  sky130_fd_pr__nfet_01v8 L=0.15 W=80
+ nf=1 ad='int((nf+1)/2) * W/nf * 0.29' as='int((nf+2)/2) * W/nf * 0.29' pd='2*int((nf+1)/2) * (W/nf + 0.29)' ps='2*int((nf+2)/2) * (W/nf + 0.29)'
+ nrd='0.29 / W' nrs='0.29 / W' sa=0 sb=0 sd=0 
+ mult=1 m=1
**** end_element
**** spice_prefix X
M25 ?1 VDDIN ?1 NDRIVE ?1 VSSOUT ?1 VSSOUT  sky130_fd_pr__nfet_01v8 L=0.15 W=80
+ nf=1 ad='int((nf+1)/2) * W/nf * 0.29' as='int((nf+2)/2) * W/nf * 0.29' pd='2*int((nf+1)/2) * (W/nf + 0.29)' ps='2*int((nf+2)/2) * (W/nf + 0.29)'
+ nrd='0.29 / W' nrs='0.29 / W' sa=0 sb=0 sd=0 
+ mult=1 m=1
**** end_element
**** spice_prefix X
M26 ?1 VDDIN ?1 NDRIVE ?1 VSSOUT ?1 VSSOUT  sky130_fd_pr__nfet_01v8 L=0.15 W=80
+ nf=1 ad='int((nf+1)/2) * W/nf * 0.29' as='int((nf+2)/2) * W/nf * 0.29' pd='2*int((nf+1)/2) * (W/nf + 0.29)' ps='2*int((nf+2)/2) * (W/nf + 0.29)'
+ nrd='0.29 / W' nrs='0.29 / W' sa=0 sb=0 sd=0 
+ mult=1 m=1
**** end_element
**** spice_prefix X
M27 ?1 VDDIN ?1 NDRIVE ?1 VSSOUT ?1 VSSOUT  sky130_fd_pr__nfet_01v8 L=0.15 W=80
+ nf=1 ad='int((nf+1)/2) * W/nf * 0.29' as='int((nf+2)/2) * W/nf * 0.29' pd='2*int((nf+1)/2) * (W/nf + 0.29)' ps='2*int((nf+2)/2) * (W/nf + 0.29)'
+ nrd='0.29 / W' nrs='0.29 / W' sa=0 sb=0 sd=0 
+ mult=1 m=1
**** end_element
**** spice_prefix X
M28 ?1 VDDIN ?1 NDRIVE ?1 VSSOUT ?1 VSSOUT  sky130_fd_pr__nfet_01v8 L=0.15 W=80
+ nf=1 ad='int((nf+1)/2) * W/nf * 0.29' as='int((nf+2)/2) * W/nf * 0.29' pd='2*int((nf+1)/2) * (W/nf + 0.29)' ps='2*int((nf+2)/2) * (W/nf + 0.29)'
+ nrd='0.29 / W' nrs='0.29 / W' sa=0 sb=0 sd=0 
+ mult=1 m=1
**** end_element
**** spice_prefix X
M29 ?1 VDDIN ?1 NDRIVE ?1 VSSOUT ?1 VSSOUT  sky130_fd_pr__nfet_01v8 L=0.15 W=80
+ nf=1 ad='int((nf+1)/2) * W/nf * 0.29' as='int((nf+2)/2) * W/nf * 0.29' pd='2*int((nf+1)/2) * (W/nf + 0.29)' ps='2*int((nf+2)/2) * (W/nf + 0.29)'
+ nrd='0.29 / W' nrs='0.29 / W' sa=0 sb=0 sd=0 
+ mult=1 m=1
**** end_element
**** spice_prefix X
M30 ?1 VDDIN ?1 NDRIVE ?1 VSSOUT ?1 VSSOUT  sky130_fd_pr__nfet_01v8 L=0.15 W=80
+ nf=1 ad='int((nf+1)/2) * W/nf * 0.29' as='int((nf+2)/2) * W/nf * 0.29' pd='2*int((nf+1)/2) * (W/nf + 0.29)' ps='2*int((nf+2)/2) * (W/nf + 0.29)'
+ nrd='0.29 / W' nrs='0.29 / W' sa=0 sb=0 sd=0 
+ mult=1 m=1
**** end_element
**** spice_prefix X
M31 ?1 VDDIN ?1 NDRIVE ?1 VSSOUT ?1 VSSOUT  sky130_fd_pr__nfet_01v8 L=0.15 W=80
+ nf=1 ad='int((nf+1)/2) * W/nf * 0.29' as='int((nf+2)/2) * W/nf * 0.29' pd='2*int((nf+1)/2) * (W/nf + 0.29)' ps='2*int((nf+2)/2) * (W/nf + 0.29)'
+ nrd='0.29 / W' nrs='0.29 / W' sa=0 sb=0 sd=0 
+ mult=1 m=1
**** end_element
**** spice_prefix X
M32 ?1 VDDIN ?1 NDRIVE ?1 VSSOUT ?1 VSSOUT  sky130_fd_pr__nfet_01v8 L=0.15 W=80
+ nf=1 ad='int((nf+1)/2) * W/nf * 0.29' as='int((nf+2)/2) * W/nf * 0.29' pd='2*int((nf+1)/2) * (W/nf + 0.29)' ps='2*int((nf+2)/2) * (W/nf + 0.29)'
+ nrd='0.29 / W' nrs='0.29 / W' sa=0 sb=0 sd=0 
+ mult=1 m=1
**** end_element
**** spice_prefix X
M33 ?1 VDDIN ?1 NDRIVE ?1 VSSOUT ?1 VSSOUT  sky130_fd_pr__nfet_01v8 L=0.15 W=80
+ nf=1 ad='int((nf+1)/2) * W/nf * 0.29' as='int((nf+2)/2) * W/nf * 0.29' pd='2*int((nf+1)/2) * (W/nf + 0.29)' ps='2*int((nf+2)/2) * (W/nf + 0.29)'
+ nrd='0.29 / W' nrs='0.29 / W' sa=0 sb=0 sd=0 
+ mult=1 m=1
**** end_element
**** spice_prefix X
M34 ?1 VDDIN ?1 NDRIVE ?1 VSSOUT ?1 VSSOUT  sky130_fd_pr__nfet_01v8 L=0.15 W=80
+ nf=1 ad='int((nf+1)/2) * W/nf * 0.29' as='int((nf+2)/2) * W/nf * 0.29' pd='2*int((nf+1)/2) * (W/nf + 0.29)' ps='2*int((nf+2)/2) * (W/nf + 0.29)'
+ nrd='0.29 / W' nrs='0.29 / W' sa=0 sb=0 sd=0 
+ mult=1 m=1
**** end_element
**** spice_prefix X
M35 ?1 VDDIN ?1 NDRIVE ?1 VSSOUT ?1 VSSOUT  sky130_fd_pr__nfet_01v8 L=0.15 W=80
+ nf=1 ad='int((nf+1)/2) * W/nf * 0.29' as='int((nf+2)/2) * W/nf * 0.29' pd='2*int((nf+1)/2) * (W/nf + 0.29)' ps='2*int((nf+2)/2) * (W/nf + 0.29)'
+ nrd='0.29 / W' nrs='0.29 / W' sa=0 sb=0 sd=0 
+ mult=1 m=1
**** end_element
**** spice_prefix X
M36 ?1 VDDIN ?1 NDRIVE ?1 VSSOUT ?1 VSSOUT  sky130_fd_pr__nfet_01v8 L=0.15 W=80
+ nf=1 ad='int((nf+1)/2) * W/nf * 0.29' as='int((nf+2)/2) * W/nf * 0.29' pd='2*int((nf+1)/2) * (W/nf + 0.29)' ps='2*int((nf+2)/2) * (W/nf + 0.29)'
+ nrd='0.29 / W' nrs='0.29 / W' sa=0 sb=0 sd=0 
+ mult=1 m=1
**** end_element
**** spice_prefix X
M37 ?1 VDDIN ?1 NDRIVE ?1 VSSOUT ?1 VSSOUT  sky130_fd_pr__nfet_01v8 L=0.15 W=80
+ nf=1 ad='int((nf+1)/2) * W/nf * 0.29' as='int((nf+2)/2) * W/nf * 0.29' pd='2*int((nf+1)/2) * (W/nf + 0.29)' ps='2*int((nf+2)/2) * (W/nf + 0.29)'
+ nrd='0.29 / W' nrs='0.29 / W' sa=0 sb=0 sd=0 
+ mult=1 m=1
**** end_element
**** spice_prefix X
M38 ?1 VDDIN ?1 NDRIVE ?1 VSSOUT ?1 VSSOUT  sky130_fd_pr__nfet_01v8 L=0.15 W=80
+ nf=1 ad='int((nf+1)/2) * W/nf * 0.29' as='int((nf+2)/2) * W/nf * 0.29' pd='2*int((nf+1)/2) * (W/nf + 0.29)' ps='2*int((nf+2)/2) * (W/nf + 0.29)'
+ nrd='0.29 / W' nrs='0.29 / W' sa=0 sb=0 sd=0 
+ mult=1 m=1
**** end_element
**** spice_prefix X
M39 ?1 VDDIN ?1 NDRIVE ?1 VSSOUT ?1 VSSOUT  sky130_fd_pr__nfet_01v8 L=0.15 W=80
+ nf=1 ad='int((nf+1)/2) * W/nf * 0.29' as='int((nf+2)/2) * W/nf * 0.29' pd='2*int((nf+1)/2) * (W/nf + 0.29)' ps='2*int((nf+2)/2) * (W/nf + 0.29)'
+ nrd='0.29 / W' nrs='0.29 / W' sa=0 sb=0 sd=0 
+ mult=1 m=1
**** end_element
**** spice_prefix X
M40 ?1 VDDIN ?1 NDRIVE ?1 VSSOUT ?1 VSSOUT  sky130_fd_pr__nfet_01v8 L=0.15 W=80
+ nf=1 ad='int((nf+1)/2) * W/nf * 0.29' as='int((nf+2)/2) * W/nf * 0.29' pd='2*int((nf+1)/2) * (W/nf + 0.29)' ps='2*int((nf+2)/2) * (W/nf + 0.29)'
+ nrd='0.29 / W' nrs='0.29 / W' sa=0 sb=0 sd=0 
+ mult=1 m=1
**** end_element
**** spice_prefix X
M41 ?1 VDDIN ?1 NDRIVE ?1 VSSOUT ?1 VSSOUT  sky130_fd_pr__nfet_01v8 L=0.15 W=80
+ nf=1 ad='int((nf+1)/2) * W/nf * 0.29' as='int((nf+2)/2) * W/nf * 0.29' pd='2*int((nf+1)/2) * (W/nf + 0.29)' ps='2*int((nf+2)/2) * (W/nf + 0.29)'
+ nrd='0.29 / W' nrs='0.29 / W' sa=0 sb=0 sd=0 
+ mult=1 m=1
**** end_element
**** spice_prefix X
M42 ?1 VDDIN ?1 NDRIVE ?1 VSSOUT ?1 VSSOUT  sky130_fd_pr__nfet_01v8 L=0.15 W=80
+ nf=1 ad='int((nf+1)/2) * W/nf * 0.29' as='int((nf+2)/2) * W/nf * 0.29' pd='2*int((nf+1)/2) * (W/nf + 0.29)' ps='2*int((nf+2)/2) * (W/nf + 0.29)'
+ nrd='0.29 / W' nrs='0.29 / W' sa=0 sb=0 sd=0 
+ mult=1 m=1
**** end_element
**** spice_prefix X
M43 ?1 VDDIN ?1 NDRIVE ?1 VSSOUT ?1 VSSOUT  sky130_fd_pr__nfet_01v8 L=0.15 W=80
+ nf=1 ad='int((nf+1)/2) * W/nf * 0.29' as='int((nf+2)/2) * W/nf * 0.29' pd='2*int((nf+1)/2) * (W/nf + 0.29)' ps='2*int((nf+2)/2) * (W/nf + 0.29)'
+ nrd='0.29 / W' nrs='0.29 / W' sa=0 sb=0 sd=0 
+ mult=1 m=1
**** end_element
**** spice_prefix X
M44 ?1 VDDIN ?1 NDRIVE ?1 VSSOUT ?1 VSSOUT  sky130_fd_pr__nfet_01v8 L=0.15 W=80
+ nf=1 ad='int((nf+1)/2) * W/nf * 0.29' as='int((nf+2)/2) * W/nf * 0.29' pd='2*int((nf+1)/2) * (W/nf + 0.29)' ps='2*int((nf+2)/2) * (W/nf + 0.29)'
+ nrd='0.29 / W' nrs='0.29 / W' sa=0 sb=0 sd=0 
+ mult=1 m=1
**** end_element
**** spice_prefix X
M45 ?1 VDDIN ?1 NDRIVE ?1 VSSOUT ?1 VSSOUT  sky130_fd_pr__nfet_01v8 L=0.15 W=80
+ nf=1 ad='int((nf+1)/2) * W/nf * 0.29' as='int((nf+2)/2) * W/nf * 0.29' pd='2*int((nf+1)/2) * (W/nf + 0.29)' ps='2*int((nf+2)/2) * (W/nf + 0.29)'
+ nrd='0.29 / W' nrs='0.29 / W' sa=0 sb=0 sd=0 
+ mult=1 m=1
**** end_element
**** spice_prefix X
M46 ?1 VDDIN ?1 NDRIVE ?1 VSSOUT ?1 VSSOUT  sky130_fd_pr__nfet_01v8 L=0.15 W=80
+ nf=1 ad='int((nf+1)/2) * W/nf * 0.29' as='int((nf+2)/2) * W/nf * 0.29' pd='2*int((nf+1)/2) * (W/nf + 0.29)' ps='2*int((nf+2)/2) * (W/nf + 0.29)'
+ nrd='0.29 / W' nrs='0.29 / W' sa=0 sb=0 sd=0 
+ mult=1 m=1
**** end_element
**** spice_prefix X
M47 ?1 VDDIN ?1 NDRIVE ?1 VSSOUT ?1 VSSOUT  sky130_fd_pr__nfet_01v8 L=0.15 W=80
+ nf=1 ad='int((nf+1)/2) * W/nf * 0.29' as='int((nf+2)/2) * W/nf * 0.29' pd='2*int((nf+1)/2) * (W/nf + 0.29)' ps='2*int((nf+2)/2) * (W/nf + 0.29)'
+ nrd='0.29 / W' nrs='0.29 / W' sa=0 sb=0 sd=0 
+ mult=1 m=1
**** end_element
**** spice_prefix X
M48 ?1 VDDIN ?1 NDRIVE ?1 VSSOUT ?1 VSSOUT  sky130_fd_pr__nfet_01v8 L=0.15 W=80
+ nf=1 ad='int((nf+1)/2) * W/nf * 0.29' as='int((nf+2)/2) * W/nf * 0.29' pd='2*int((nf+1)/2) * (W/nf + 0.29)' ps='2*int((nf+2)/2) * (W/nf + 0.29)'
+ nrd='0.29 / W' nrs='0.29 / W' sa=0 sb=0 sd=0 
+ mult=1 m=1
**** end_element
**** spice_prefix X
M49 ?1 VDDIN ?1 NDRIVE ?1 VSSOUT ?1 VSSOUT  sky130_fd_pr__nfet_01v8 L=0.15 W=80
+ nf=1 ad='int((nf+1)/2) * W/nf * 0.29' as='int((nf+2)/2) * W/nf * 0.29' pd='2*int((nf+1)/2) * (W/nf + 0.29)' ps='2*int((nf+2)/2) * (W/nf + 0.29)'
+ nrd='0.29 / W' nrs='0.29 / W' sa=0 sb=0 sd=0 
+ mult=1 m=1
**** end_element
**** spice_prefix X
M50 ?1 VDDIN ?1 NDRIVE ?1 VSSOUT ?1 VSSOUT  sky130_fd_pr__nfet_01v8 L=0.15 W=80
+ nf=1 ad='int((nf+1)/2) * W/nf * 0.29' as='int((nf+2)/2) * W/nf * 0.29' pd='2*int((nf+1)/2) * (W/nf + 0.29)' ps='2*int((nf+2)/2) * (W/nf + 0.29)'
+ nrd='0.29 / W' nrs='0.29 / W' sa=0 sb=0 sd=0 
+ mult=1 m=1
**** end_element
**** spice_prefix X
M51 ?1 VDDIN ?1 NDRIVE ?1 VSSOUT ?1 VSSOUT  sky130_fd_pr__nfet_01v8 L=0.15 W=80
+ nf=1 ad='int((nf+1)/2) * W/nf * 0.29' as='int((nf+2)/2) * W/nf * 0.29' pd='2*int((nf+1)/2) * (W/nf + 0.29)' ps='2*int((nf+2)/2) * (W/nf + 0.29)'
+ nrd='0.29 / W' nrs='0.29 / W' sa=0 sb=0 sd=0 
+ mult=1 m=1
**** end_element
**** spice_prefix X
M52 ?1 VDDIN ?1 NDRIVE ?1 VSSOUT ?1 VSSOUT  sky130_fd_pr__nfet_01v8 L=0.15 W=80
+ nf=1 ad='int((nf+1)/2) * W/nf * 0.29' as='int((nf+2)/2) * W/nf * 0.29' pd='2*int((nf+1)/2) * (W/nf + 0.29)' ps='2*int((nf+2)/2) * (W/nf + 0.29)'
+ nrd='0.29 / W' nrs='0.29 / W' sa=0 sb=0 sd=0 
+ mult=1 m=1
**** end_element
**** spice_prefix X
M53 ?1 VDDIN ?1 NDRIVE ?1 VSSOUT ?1 VSSOUT  sky130_fd_pr__nfet_01v8 L=0.15 W=80
+ nf=1 ad='int((nf+1)/2) * W/nf * 0.29' as='int((nf+2)/2) * W/nf * 0.29' pd='2*int((nf+1)/2) * (W/nf + 0.29)' ps='2*int((nf+2)/2) * (W/nf + 0.29)'
+ nrd='0.29 / W' nrs='0.29 / W' sa=0 sb=0 sd=0 
+ mult=1 m=1
**** end_element
**** spice_prefix X
M54 ?1 VDDIN ?1 NDRIVE ?1 VSSOUT ?1 VSSOUT  sky130_fd_pr__nfet_01v8 L=0.15 W=80
+ nf=1 ad='int((nf+1)/2) * W/nf * 0.29' as='int((nf+2)/2) * W/nf * 0.29' pd='2*int((nf+1)/2) * (W/nf + 0.29)' ps='2*int((nf+2)/2) * (W/nf + 0.29)'
+ nrd='0.29 / W' nrs='0.29 / W' sa=0 sb=0 sd=0 
+ mult=1 m=1
**** end_element
**** spice_prefix X
M55 ?1 VDDIN ?1 NDRIVE ?1 VSSOUT ?1 VSSOUT  sky130_fd_pr__nfet_01v8 L=0.15 W=80
+ nf=1 ad='int((nf+1)/2) * W/nf * 0.29' as='int((nf+2)/2) * W/nf * 0.29' pd='2*int((nf+1)/2) * (W/nf + 0.29)' ps='2*int((nf+2)/2) * (W/nf + 0.29)'
+ nrd='0.29 / W' nrs='0.29 / W' sa=0 sb=0 sd=0 
+ mult=1 m=1
**** end_element
**** spice_prefix X
M56 ?1 VDDIN ?1 NDRIVE ?1 VSSOUT ?1 VSSOUT  sky130_fd_pr__nfet_01v8 L=0.15 W=80
+ nf=1 ad='int((nf+1)/2) * W/nf * 0.29' as='int((nf+2)/2) * W/nf * 0.29' pd='2*int((nf+1)/2) * (W/nf + 0.29)' ps='2*int((nf+2)/2) * (W/nf + 0.29)'
+ nrd='0.29 / W' nrs='0.29 / W' sa=0 sb=0 sd=0 
+ mult=1 m=1
**** end_element
**** spice_prefix X
M57 ?1 VDDIN ?1 NDRIVE ?1 VSSOUT ?1 VSSOUT  sky130_fd_pr__nfet_01v8 L=0.15 W=80
+ nf=1 ad='int((nf+1)/2) * W/nf * 0.29' as='int((nf+2)/2) * W/nf * 0.29' pd='2*int((nf+1)/2) * (W/nf + 0.29)' ps='2*int((nf+2)/2) * (W/nf + 0.29)'
+ nrd='0.29 / W' nrs='0.29 / W' sa=0 sb=0 sd=0 
+ mult=1 m=1
**** end_element
**** spice_prefix X
M58 ?1 VDDIN ?1 NDRIVE ?1 VSSOUT ?1 VSSOUT  sky130_fd_pr__nfet_01v8 L=0.15 W=80
+ nf=1 ad='int((nf+1)/2) * W/nf * 0.29' as='int((nf+2)/2) * W/nf * 0.29' pd='2*int((nf+1)/2) * (W/nf + 0.29)' ps='2*int((nf+2)/2) * (W/nf + 0.29)'
+ nrd='0.29 / W' nrs='0.29 / W' sa=0 sb=0 sd=0 
+ mult=1 m=1
**** end_element
**** spice_prefix X
M59 ?1 VDDIN ?1 NDRIVE ?1 VSSOUT ?1 VSSOUT  sky130_fd_pr__nfet_01v8 L=0.15 W=80
+ nf=1 ad='int((nf+1)/2) * W/nf * 0.29' as='int((nf+2)/2) * W/nf * 0.29' pd='2*int((nf+1)/2) * (W/nf + 0.29)' ps='2*int((nf+2)/2) * (W/nf + 0.29)'
+ nrd='0.29 / W' nrs='0.29 / W' sa=0 sb=0 sd=0 
+ mult=1 m=1
**** end_element
**** spice_prefix X
M60 ?1 VDDIN ?1 NDRIVE ?1 VSSOUT ?1 VSSOUT  sky130_fd_pr__nfet_01v8 L=0.15 W=80
+ nf=1 ad='int((nf+1)/2) * W/nf * 0.29' as='int((nf+2)/2) * W/nf * 0.29' pd='2*int((nf+1)/2) * (W/nf + 0.29)' ps='2*int((nf+2)/2) * (W/nf + 0.29)'
+ nrd='0.29 / W' nrs='0.29 / W' sa=0 sb=0 sd=0 
+ mult=1 m=1
**** end_element
**** spice_prefix X
M61 ?1 VDDIN ?1 NDRIVE ?1 VSSOUT ?1 VSSOUT  sky130_fd_pr__nfet_01v8 L=0.15 W=80
+ nf=1 ad='int((nf+1)/2) * W/nf * 0.29' as='int((nf+2)/2) * W/nf * 0.29' pd='2*int((nf+1)/2) * (W/nf + 0.29)' ps='2*int((nf+2)/2) * (W/nf + 0.29)'
+ nrd='0.29 / W' nrs='0.29 / W' sa=0 sb=0 sd=0 
+ mult=1 m=1
**** end_element
**** spice_prefix X
M62 ?1 VDDIN ?1 NDRIVE ?1 VSSOUT ?1 VSSOUT  sky130_fd_pr__nfet_01v8 L=0.15 W=80
+ nf=1 ad='int((nf+1)/2) * W/nf * 0.29' as='int((nf+2)/2) * W/nf * 0.29' pd='2*int((nf+1)/2) * (W/nf + 0.29)' ps='2*int((nf+2)/2) * (W/nf + 0.29)'
+ nrd='0.29 / W' nrs='0.29 / W' sa=0 sb=0 sd=0 
+ mult=1 m=1
**** end_element
**** spice_prefix X
M63 ?1 VDDIN ?1 NDRIVE ?1 VSSOUT ?1 VSSOUT  sky130_fd_pr__nfet_01v8 L=0.15 W=80
+ nf=1 ad='int((nf+1)/2) * W/nf * 0.29' as='int((nf+2)/2) * W/nf * 0.29' pd='2*int((nf+1)/2) * (W/nf + 0.29)' ps='2*int((nf+2)/2) * (W/nf + 0.29)'
+ nrd='0.29 / W' nrs='0.29 / W' sa=0 sb=0 sd=0 
+ mult=1 m=1
**** end_element
**** spice_prefix X
M64 ?1 VDDIN ?1 NDRIVE ?1 VSSOUT ?1 VSSOUT  sky130_fd_pr__nfet_01v8 L=0.15 W=80
+ nf=1 ad='int((nf+1)/2) * W/nf * 0.29' as='int((nf+2)/2) * W/nf * 0.29' pd='2*int((nf+1)/2) * (W/nf + 0.29)' ps='2*int((nf+2)/2) * (W/nf + 0.29)'
+ nrd='0.29 / W' nrs='0.29 / W' sa=0 sb=0 sd=0 
+ mult=1 m=1
**** end_element
**** spice_prefix X
M65 ?1 VDDIN ?1 NDRIVE ?1 VSSOUT ?1 VSSOUT  sky130_fd_pr__nfet_01v8 L=0.15 W=80
+ nf=1 ad='int((nf+1)/2) * W/nf * 0.29' as='int((nf+2)/2) * W/nf * 0.29' pd='2*int((nf+1)/2) * (W/nf + 0.29)' ps='2*int((nf+2)/2) * (W/nf + 0.29)'
+ nrd='0.29 / W' nrs='0.29 / W' sa=0 sb=0 sd=0 
+ mult=1 m=1
**** end_element
**** spice_prefix X
M66 ?1 VDDIN ?1 NDRIVE ?1 VSSOUT ?1 VSSOUT  sky130_fd_pr__nfet_01v8 L=0.15 W=80
+ nf=1 ad='int((nf+1)/2) * W/nf * 0.29' as='int((nf+2)/2) * W/nf * 0.29' pd='2*int((nf+1)/2) * (W/nf + 0.29)' ps='2*int((nf+2)/2) * (W/nf + 0.29)'
+ nrd='0.29 / W' nrs='0.29 / W' sa=0 sb=0 sd=0 
+ mult=1 m=1
**** end_element
**** spice_prefix X
M67 ?1 VDDIN ?1 NDRIVE ?1 VSSOUT ?1 VSSOUT  sky130_fd_pr__nfet_01v8 L=0.15 W=80
+ nf=1 ad='int((nf+1)/2) * W/nf * 0.29' as='int((nf+2)/2) * W/nf * 0.29' pd='2*int((nf+1)/2) * (W/nf + 0.29)' ps='2*int((nf+2)/2) * (W/nf + 0.29)'
+ nrd='0.29 / W' nrs='0.29 / W' sa=0 sb=0 sd=0 
+ mult=1 m=1
**** end_element
**** spice_prefix X
M68 ?1 VDDIN ?1 NDRIVE ?1 VSSOUT ?1 VSSOUT  sky130_fd_pr__nfet_01v8 L=0.15 W=80
+ nf=1 ad='int((nf+1)/2) * W/nf * 0.29' as='int((nf+2)/2) * W/nf * 0.29' pd='2*int((nf+1)/2) * (W/nf + 0.29)' ps='2*int((nf+2)/2) * (W/nf + 0.29)'
+ nrd='0.29 / W' nrs='0.29 / W' sa=0 sb=0 sd=0 
+ mult=1 m=1
**** end_element
**** spice_prefix X
M69 ?1 VDDIN ?1 NDRIVE ?1 VSSOUT ?1 VSSOUT  sky130_fd_pr__nfet_01v8 L=0.15 W=80
+ nf=1 ad='int((nf+1)/2) * W/nf * 0.29' as='int((nf+2)/2) * W/nf * 0.29' pd='2*int((nf+1)/2) * (W/nf + 0.29)' ps='2*int((nf+2)/2) * (W/nf + 0.29)'
+ nrd='0.29 / W' nrs='0.29 / W' sa=0 sb=0 sd=0 
+ mult=1 m=1
**** end_element
**** spice_prefix X
M70 ?1 VDDIN ?1 NDRIVE ?1 VSSOUT ?1 VSSOUT  sky130_fd_pr__nfet_01v8 L=0.15 W=80
+ nf=1 ad='int((nf+1)/2) * W/nf * 0.29' as='int((nf+2)/2) * W/nf * 0.29' pd='2*int((nf+1)/2) * (W/nf + 0.29)' ps='2*int((nf+2)/2) * (W/nf + 0.29)'
+ nrd='0.29 / W' nrs='0.29 / W' sa=0 sb=0 sd=0 
+ mult=1 m=1
**** end_element
**** spice_prefix X
M71 ?1 VDDIN ?1 NDRIVE ?1 VSSOUT ?1 VSSOUT  sky130_fd_pr__nfet_01v8 L=0.15 W=80
+ nf=1 ad='int((nf+1)/2) * W/nf * 0.29' as='int((nf+2)/2) * W/nf * 0.29' pd='2*int((nf+1)/2) * (W/nf + 0.29)' ps='2*int((nf+2)/2) * (W/nf + 0.29)'
+ nrd='0.29 / W' nrs='0.29 / W' sa=0 sb=0 sd=0 
+ mult=1 m=1
**** end_element
**** spice_prefix X
M72 ?1 VDDIN ?1 NDRIVE ?1 VSSOUT ?1 VSSOUT  sky130_fd_pr__nfet_01v8 L=0.15 W=80
+ nf=1 ad='int((nf+1)/2) * W/nf * 0.29' as='int((nf+2)/2) * W/nf * 0.29' pd='2*int((nf+1)/2) * (W/nf + 0.29)' ps='2*int((nf+2)/2) * (W/nf + 0.29)'
+ nrd='0.29 / W' nrs='0.29 / W' sa=0 sb=0 sd=0 
+ mult=1 m=1
**** end_element
**** spice_prefix X
M73 ?1 VDDIN ?1 NDRIVE ?1 VSSOUT ?1 VSSOUT  sky130_fd_pr__nfet_01v8 L=0.15 W=80
+ nf=1 ad='int((nf+1)/2) * W/nf * 0.29' as='int((nf+2)/2) * W/nf * 0.29' pd='2*int((nf+1)/2) * (W/nf + 0.29)' ps='2*int((nf+2)/2) * (W/nf + 0.29)'
+ nrd='0.29 / W' nrs='0.29 / W' sa=0 sb=0 sd=0 
+ mult=1 m=1
**** end_element
**** spice_prefix X
M74 ?1 VDDIN ?1 NDRIVE ?1 VSSOUT ?1 VSSOUT  sky130_fd_pr__nfet_01v8 L=0.15 W=80
+ nf=1 ad='int((nf+1)/2) * W/nf * 0.29' as='int((nf+2)/2) * W/nf * 0.29' pd='2*int((nf+1)/2) * (W/nf + 0.29)' ps='2*int((nf+2)/2) * (W/nf + 0.29)'
+ nrd='0.29 / W' nrs='0.29 / W' sa=0 sb=0 sd=0 
+ mult=1 m=1
**** end_element
**** spice_prefix X
M75 ?1 VDDIN ?1 NDRIVE ?1 VSSOUT ?1 VSSOUT  sky130_fd_pr__nfet_01v8 L=0.15 W=80
+ nf=1 ad='int((nf+1)/2) * W/nf * 0.29' as='int((nf+2)/2) * W/nf * 0.29' pd='2*int((nf+1)/2) * (W/nf + 0.29)' ps='2*int((nf+2)/2) * (W/nf + 0.29)'
+ nrd='0.29 / W' nrs='0.29 / W' sa=0 sb=0 sd=0 
+ mult=1 m=1
**** end_element
**** spice_prefix X
M76 ?1 VDDIN ?1 NDRIVE ?1 VSSOUT ?1 VSSOUT  sky130_fd_pr__nfet_01v8 L=0.15 W=80
+ nf=1 ad='int((nf+1)/2) * W/nf * 0.29' as='int((nf+2)/2) * W/nf * 0.29' pd='2*int((nf+1)/2) * (W/nf + 0.29)' ps='2*int((nf+2)/2) * (W/nf + 0.29)'
+ nrd='0.29 / W' nrs='0.29 / W' sa=0 sb=0 sd=0 
+ mult=1 m=1
**** end_element
**** spice_prefix X
M77 ?1 VDDIN ?1 NDRIVE ?1 VSSOUT ?1 VSSOUT  sky130_fd_pr__nfet_01v8 L=0.15 W=80
+ nf=1 ad='int((nf+1)/2) * W/nf * 0.29' as='int((nf+2)/2) * W/nf * 0.29' pd='2*int((nf+1)/2) * (W/nf + 0.29)' ps='2*int((nf+2)/2) * (W/nf + 0.29)'
+ nrd='0.29 / W' nrs='0.29 / W' sa=0 sb=0 sd=0 
+ mult=1 m=1
**** end_element
**** spice_prefix X
M78 ?1 VDDIN ?1 NDRIVE ?1 VSSOUT ?1 VSSOUT  sky130_fd_pr__nfet_01v8 L=0.15 W=80
+ nf=1 ad='int((nf+1)/2) * W/nf * 0.29' as='int((nf+2)/2) * W/nf * 0.29' pd='2*int((nf+1)/2) * (W/nf + 0.29)' ps='2*int((nf+2)/2) * (W/nf + 0.29)'
+ nrd='0.29 / W' nrs='0.29 / W' sa=0 sb=0 sd=0 
+ mult=1 m=1
**** end_element
**** spice_prefix X
M79 ?1 VDDIN ?1 NDRIVE ?1 VSSOUT ?1 VSSOUT  sky130_fd_pr__nfet_01v8 L=0.15 W=80
+ nf=1 ad='int((nf+1)/2) * W/nf * 0.29' as='int((nf+2)/2) * W/nf * 0.29' pd='2*int((nf+1)/2) * (W/nf + 0.29)' ps='2*int((nf+2)/2) * (W/nf + 0.29)'
+ nrd='0.29 / W' nrs='0.29 / W' sa=0 sb=0 sd=0 
+ mult=1 m=1
**** end_element
**** spice_prefix X
M80 ?1 VDDIN ?1 NDRIVE ?1 VSSOUT ?1 VSSOUT  sky130_fd_pr__nfet_01v8 L=0.15 W=80
+ nf=1 ad='int((nf+1)/2) * W/nf * 0.29' as='int((nf+2)/2) * W/nf * 0.29' pd='2*int((nf+1)/2) * (W/nf + 0.29)' ps='2*int((nf+2)/2) * (W/nf + 0.29)'
+ nrd='0.29 / W' nrs='0.29 / W' sa=0 sb=0 sd=0 
+ mult=1 m=1
**** end_element
**** spice_prefix X
M81 ?1 VDDIN ?1 NDRIVE ?1 VSSOUT ?1 VSSOUT  sky130_fd_pr__nfet_01v8 L=0.15 W=80
+ nf=1 ad='int((nf+1)/2) * W/nf * 0.29' as='int((nf+2)/2) * W/nf * 0.29' pd='2*int((nf+1)/2) * (W/nf + 0.29)' ps='2*int((nf+2)/2) * (W/nf + 0.29)'
+ nrd='0.29 / W' nrs='0.29 / W' sa=0 sb=0 sd=0 
+ mult=1 m=1
**** end_element
**** spice_prefix X
M82 ?1 VDDIN ?1 NDRIVE ?1 VSSOUT ?1 VSSOUT  sky130_fd_pr__nfet_01v8 L=0.15 W=80
+ nf=1 ad='int((nf+1)/2) * W/nf * 0.29' as='int((nf+2)/2) * W/nf * 0.29' pd='2*int((nf+1)/2) * (W/nf + 0.29)' ps='2*int((nf+2)/2) * (W/nf + 0.29)'
+ nrd='0.29 / W' nrs='0.29 / W' sa=0 sb=0 sd=0 
+ mult=1 m=1
**** end_element
**** spice_prefix X
M83 ?1 VDDIN ?1 NDRIVE ?1 VSSOUT ?1 VSSOUT  sky130_fd_pr__nfet_01v8 L=0.15 W=80
+ nf=1 ad='int((nf+1)/2) * W/nf * 0.29' as='int((nf+2)/2) * W/nf * 0.29' pd='2*int((nf+1)/2) * (W/nf + 0.29)' ps='2*int((nf+2)/2) * (W/nf + 0.29)'
+ nrd='0.29 / W' nrs='0.29 / W' sa=0 sb=0 sd=0 
+ mult=1 m=1
**** end_element
**** spice_prefix X
M84 ?1 VDDIN ?1 NDRIVE ?1 VSSOUT ?1 VSSOUT  sky130_fd_pr__nfet_01v8 L=0.15 W=80
+ nf=1 ad='int((nf+1)/2) * W/nf * 0.29' as='int((nf+2)/2) * W/nf * 0.29' pd='2*int((nf+1)/2) * (W/nf + 0.29)' ps='2*int((nf+2)/2) * (W/nf + 0.29)'
+ nrd='0.29 / W' nrs='0.29 / W' sa=0 sb=0 sd=0 
+ mult=1 m=1
**** end_element
**** spice_prefix X
M85 ?1 VDDIN ?1 NDRIVE ?1 VSSOUT ?1 VSSOUT  sky130_fd_pr__nfet_01v8 L=0.15 W=80
+ nf=1 ad='int((nf+1)/2) * W/nf * 0.29' as='int((nf+2)/2) * W/nf * 0.29' pd='2*int((nf+1)/2) * (W/nf + 0.29)' ps='2*int((nf+2)/2) * (W/nf + 0.29)'
+ nrd='0.29 / W' nrs='0.29 / W' sa=0 sb=0 sd=0 
+ mult=1 m=1
**** end_element
**** spice_prefix X
M86 ?1 VDDIN ?1 NDRIVE ?1 VSSOUT ?1 VSSOUT  sky130_fd_pr__nfet_01v8 L=0.15 W=80
+ nf=1 ad='int((nf+1)/2) * W/nf * 0.29' as='int((nf+2)/2) * W/nf * 0.29' pd='2*int((nf+1)/2) * (W/nf + 0.29)' ps='2*int((nf+2)/2) * (W/nf + 0.29)'
+ nrd='0.29 / W' nrs='0.29 / W' sa=0 sb=0 sd=0 
+ mult=1 m=1
**** end_element
**** spice_prefix X
M87 ?1 VDDIN ?1 NDRIVE ?1 VSSOUT ?1 VSSOUT  sky130_fd_pr__nfet_01v8 L=0.15 W=80
+ nf=1 ad='int((nf+1)/2) * W/nf * 0.29' as='int((nf+2)/2) * W/nf * 0.29' pd='2*int((nf+1)/2) * (W/nf + 0.29)' ps='2*int((nf+2)/2) * (W/nf + 0.29)'
+ nrd='0.29 / W' nrs='0.29 / W' sa=0 sb=0 sd=0 
+ mult=1 m=1
**** end_element
**** spice_prefix X
M88 ?1 VDDIN ?1 NDRIVE ?1 VSSOUT ?1 VSSOUT  sky130_fd_pr__nfet_01v8 L=0.15 W=80
+ nf=1 ad='int((nf+1)/2) * W/nf * 0.29' as='int((nf+2)/2) * W/nf * 0.29' pd='2*int((nf+1)/2) * (W/nf + 0.29)' ps='2*int((nf+2)/2) * (W/nf + 0.29)'
+ nrd='0.29 / W' nrs='0.29 / W' sa=0 sb=0 sd=0 
+ mult=1 m=1
**** end_element
**** spice_prefix X
M89 ?1 VDDIN ?1 NDRIVE ?1 VSSOUT ?1 VSSOUT  sky130_fd_pr__nfet_01v8 L=0.15 W=80